data/nesta/nesta_case2737sop_mp.m
%%%%%%%%%%%%%%%%%%%%%%%%%%%%%%%%%%%%%%%%%%%%%%%%%%%%%%%%%%%%%%%%%%%%%%%%%%%
%%%%                                                                  %%%%%
%%%%      NICTA Energy System Test Case Archive (NESTA) - v0.1.5      %%%%%
%%%%              Optimal Power Flow - Typical Operation              %%%%%
%%%%                       30 - October - 2014                        %%%%%
%%%%                                                                  %%%%%
%%%%%%%%%%%%%%%%%%%%%%%%%%%%%%%%%%%%%%%%%%%%%%%%%%%%%%%%%%%%%%%%%%%%%%%%%%%
%
%   Power flow data for Polish system - summer 2004 off-peak.
%   Please see CASEFORMAT for details on the case file format.
%
%   This case represents the Polish 400, 220 and 110 kV networks during
%   summer 2004 off-peak conditions. Multiple centrally dispatchable
%   generators at a bus have not been aggregated. Generators that are
%   not centrally dispatchable in the Polish energy market are given a
%   cost of zero.
%
%   This data was graciously provided by, and is distributed with the
%   permission of, Roman Korab <roman.korab@polsl.pl>.
%
function mpc = nesta_case2737sop_mp
mpc.version = '2';
mpc.baseMVA = 100.0;

%% area data
%	area	refbus
mpc.areas = [
	1	 18;
];

%% bus data
%	bus_i	type	Pd	Qd	Gs	Bs	area	Vm	Va	baseKV	zone	Vmax	Vmin
mpc.bus = [
	1	 1	 0.0	 0.0	 0.0	 0.0	 1	     1.0988	     3.1732	 220.0	 1	     1.1100	     0.9500;
	2	 1	 0.0	 0.0	 0.0	 0.0	 1	     1.1062	     2.1003	 220.0	 1	     1.1100	     0.9500;
	3	 1	 0.0	 0.0	 0.0	 0.0	 1	     1.0814	   -12.4144	 220.0	 1	     1.1100	     0.9500;
	4	 1	 0.0	 0.0	 0.0	 0.0	 1	     1.0979	    -0.2626	 220.0	 1	     1.1100	     0.9500;
	5	 1	 0.0	 0.0	 0.0	 0.0	 1	     1.0979	    -0.2590	 220.0	 1	     1.1100	     0.9500;
	6	 1	 0.0	 0.0	 0.0	 0.0	 1	     1.0785	    -6.7111	 220.0	 1	     1.1100	     0.9500;
	7	 1	 0.0	 0.0	 0.0	 0.0	 1	     1.0785	    -6.7055	 220.0	 1	     1.1100	     0.9500;
	8	 1	 0.0	 0.0	 0.0	 -50.0	 1	     1.0422	    -5.3046	 400.0	 1	     1.0500	     0.9500;
	9	 1	 0.0	 0.0	 0.0	 0.0	 1	     1.0423	    -5.3032	 400.0	 1	     1.0500	     0.9500;
	10	 1	 0.0	 0.0	 0.0	 0.0	 1	     1.0715	    -6.7531	 220.0	 1	     1.1100	     0.9500;
	11	 1	 0.0	 0.0	 0.0	 0.0	 1	     1.0715	    -6.7558	 220.0	 1	     1.1100	     0.9500;
	12	 1	 0.0	 0.0	 0.0	 0.0	 1	     1.0715	    -6.7512	 220.0	 1	     1.1100	     0.9500;
	13	 1	 0.0	 0.0	 0.0	 0.0	 1	     1.0715	    -6.7558	 220.0	 1	     1.1100	     0.9500;
	14	 1	 0.0	 0.0	 0.0	 -50.0	 1	     1.0362	    -4.2491	 400.0	 1	     1.0500	     0.9500;
	15	 1	 0.0	 0.0	 0.0	 0.0	 1	     1.0500	    -6.6753	 400.0	 1	     1.0500	     0.9500;
	16	 1	 0.0	 0.0	 0.0	 0.0	 1	     1.0500	    -6.6753	 400.0	 1	     1.0500	     0.9500;
	17	 1	 0.0	 0.0	 0.0	 0.0	 1	     1.0752	   -10.3263	 220.0	 1	     1.1100	     0.9500;
	18	 1	 0.0	 0.0	 0.0	 0.0	 1	     1.0751	   -10.3265	 220.0	 1	     1.1100	     0.9500;
	19	 1	 0.0	 0.0	 0.0	 0.0	 1	     1.1006	     0.2905	 220.0	 1	     1.1100	     0.9500;
	20	 1	 0.0	 0.0	 0.0	 0.0	 1	     1.1006	     0.2850	 220.0	 1	     1.1100	     0.9500;
	21	 1	 0.0	 0.0	 0.0	 0.0	 1	     1.0822	    -7.0075	 220.0	 1	     1.1100	     0.9500;
	22	 1	 0.0	 0.0	 0.0	 0.0	 1	     1.0822	    -7.0075	 220.0	 1	     1.1100	     0.9500;
	23	 1	 0.0	 0.0	 0.0	 0.0	 1	     1.0689	    -6.8095	 220.0	 1	     1.1100	     0.9500;
	24	 1	 0.0	 0.0	 0.0	 0.0	 1	     1.1024	     0.6897	 220.0	 1	     1.1100	     0.9500;
	25	 1	 0.0	 0.0	 0.0	 -50.0	 1	     1.0389	    -6.6166	 400.0	 1	     1.0500	     0.9500;
	26	 2	 48.178	 65.087	 0.0	 0.0	 1	     1.1083	     3.5097	 220.0	 1	     1.1100	     0.9500;
	27	 2	 28.145	 35.087	 0.0	 0.0	 1	     1.1074	     2.0774	 220.0	 1	     1.1100	     0.9500;
	28	 3	 0.0	 0.0	 0.0	 0.0	 1	     1.0449	     1.7781	 400.0	 1	     1.0500	     0.9500;
	29	 2	 44.698	 72.0	 0.0	 0.0	 1	     1.0449	     1.7863	 400.0	 1	     1.0500	     0.9500;
	30	 1	 0.0	 0.0	 0.0	 0.0	 1	     1.0767	    -7.0073	 220.0	 1	     1.1100	     0.9500;
	31	 1	 0.0	 0.0	 0.0	 0.0	 1	     1.0465	     0.7997	 400.0	 1	     1.0500	     0.9500;
	32	 1	 0.0	 0.0	 0.0	 0.0	 1	     1.0693	    -6.9043	 220.0	 1	     1.1100	     0.9500;
	33	 1	 0.0	 0.0	 0.0	 0.0	 1	     1.0992	    -1.7079	 220.0	 1	     1.1100	     0.9500;
	34	 1	 0.0	 0.0	 0.0	 0.0	 1	     1.1100	    -3.5436	 220.0	 2	     1.1100	     0.9500;
	35	 1	 0.0	 0.0	 0.0	 0.0	 1	     1.0805	    -4.3551	 220.0	 2	     1.1100	     0.9500;
	36	 1	 0.0	 0.0	 0.0	 0.0	 1	     1.0970	    -3.9055	 220.0	 2	     1.1100	     0.9500;
	37	 1	 0.0	 0.0	 0.0	 0.0	 1	     1.0969	    -3.9070	 220.0	 2	     1.1100	     0.9500;
	38	 1	 0.0	 0.0	 0.0	 0.0	 1	     1.1003	    -3.7899	 220.0	 2	     1.1100	     0.9500;
	39	 1	 0.0	 0.0	 0.0	 0.0	 1	     1.1071	    -3.9626	 220.0	 2	     1.1100	     0.9500;
	40	 1	 0.0	 0.0	 0.0	 0.0	 1	     1.1070	    -3.9655	 220.0	 2	     1.1100	     0.9500;
	41	 1	 0.0	 0.0	 0.0	 0.0	 1	     1.0389	    -3.8675	 400.0	 2	     1.0500	     0.9500;
	42	 2	 13.0	 0.0	 0.0	 0.0	 1	     1.0844	    -3.6252	 220.0	 2	     1.1100	     0.9500;
	43	 2	 13.0	 0.0	 0.0	 0.0	 1	     1.0844	    -3.6162	 220.0	 2	     1.1100	     0.9500;
	44	 2	 25.0	 0.0	 0.0	 0.0	 1	     1.0495	    -3.7143	 400.0	 2	     1.0500	     0.9500;
	45	 1	 0.0	 0.0	 0.0	 0.0	 1	     1.0495	    -3.7139	 400.0	 2	     1.0500	     0.9500;
	46	 1	 0.0	 0.0	 0.0	 0.0	 1	     1.1066	    -4.2521	 220.0	 2	     1.1100	     0.9500;
	47	 1	 0.0	 0.0	 0.0	 0.0	 1	     1.0388	    -6.4543	 400.0	 2	     1.0500	     0.9500;
	48	 1	 0.0	 0.0	 0.0	 0.0	 1	     1.0388	    -6.4585	 400.0	 2	     1.0500	     0.9500;
	49	 1	 0.0	 0.0	 0.0	 0.0	 1	     1.0467	    -3.6073	 400.0	 2	     1.0500	     0.9500;
	50	 1	 0.0	 0.0	 0.0	 0.0	 1	     1.1004	    -3.2193	 220.0	 2	     1.1100	     0.9500;
	51	 1	 0.0	 0.0	 0.0	 0.0	 1	     1.1003	    -3.2168	 220.0	 2	     1.1100	     0.9500;
	52	 1	 0.0	 0.0	 0.0	 0.0	 1	     1.0478	    -4.1911	 400.0	 2	     1.0500	     0.9500;
	53	 1	 0.0	 0.0	 0.0	 0.0	 1	     1.0478	    -4.1903	 400.0	 2	     1.0500	     0.9500;
	54	 1	 0.0	 0.0	 0.0	 0.0	 1	     1.0977	    -3.6115	 220.0	 2	     1.1100	     0.9500;
	55	 2	 13.0	 0.0	 0.0	 0.0	 1	     1.0977	    -3.6048	 220.0	 2	     1.1100	     0.9500;
	56	 2	 13.0	 0.0	 0.0	 0.0	 1	     1.0459	    -3.7637	 400.0	 2	     1.0500	     0.9500;
	57	 2	 13.0	 0.0	 0.0	 0.0	 1	     1.0459	    -3.7672	 400.0	 2	     1.0500	     0.9500;
	58	 2	 67.882	 25.273	 0.0	 0.0	 1	     1.0902	    -3.8335	 220.0	 2	     1.1100	     0.9500;
	59	 1	 0.0	 0.0	 0.0	 0.0	 1	     1.0903	    -3.8310	 220.0	 2	     1.1100	     0.9500;
	60	 1	 0.0	 0.0	 0.0	 0.0	 1	     1.1032	    -4.3319	 220.0	 2	     1.1100	     0.9500;
	61	 1	 0.0	 0.0	 0.0	 0.0	 1	     1.0899	    -4.0841	 220.0	 2	     1.1100	     0.9500;
	62	 1	 0.0	 0.0	 0.0	 0.0	 1	     1.0898	    -4.0841	 220.0	 2	     1.1100	     0.9500;
	63	 1	 0.0	 0.0	 0.0	 0.0	 1	     1.0375	    -4.6164	 400.0	 2	     1.0500	     0.9500;
	64	 1	 0.0	 0.0	 0.0	 0.0	 1	     1.0375	    -4.6243	 400.0	 2	     1.0500	     0.9500;
	65	 1	 0.0	 224.802	 0.0	 0.0	 1	     1.0496	    -4.5992	 750.0	 2	     1.0500	     0.9000;
	66	 1	 0.0	 0.0	 0.0	 0.0	 1	     1.1011	    -4.1128	 220.0	 2	     1.1100	     0.9500;
	67	 1	 0.0	 0.0	 0.0	 0.0	 1	     1.1018	    -4.0223	 220.0	 2	     1.1100	     0.9500;
	68	 1	 0.0	 0.0	 0.0	 0.0	 1	     1.0970	    -2.7102	 220.0	 2	     1.1100	     0.9500;
	69	 1	 0.0	 0.0	 0.0	 0.0	 1	     1.0999	    -1.5148	 220.0	 3	     1.1100	     0.9500;
	70	 1	 0.0	 0.0	 0.0	 0.0	 1	     1.1007	    -4.4939	 220.0	 3	     1.1100	     0.9500;
	71	 1	 0.0	 0.0	 0.0	 0.0	 1	     1.1007	    -4.4925	 220.0	 3	     1.1100	     0.9500;
	72	 1	 0.0	 0.0	 0.0	 0.0	 1	     1.0863	    -4.3937	 220.0	 3	     1.1100	     0.9500;
	73	 1	 0.0	 0.0	 0.0	 0.0	 1	     1.0863	    -4.3818	 220.0	 3	     1.1100	     0.9500;
	74	 1	 0.0	 0.0	 0.0	 0.0	 1	     1.0950	    -3.3715	 220.0	 3	     1.1100	     0.9500;
	75	 1	 0.0	 0.0	 0.0	 0.0	 1	     1.0950	    -3.3728	 220.0	 3	     1.1100	     0.9500;
	76	 1	 0.0	 0.0	 0.0	 0.0	 1	     1.0812	    -8.0357	 220.0	 3	     1.1100	     0.9500;
	77	 1	 0.0	 0.0	 0.0	 0.0	 1	     1.0812	    -8.0390	 220.0	 3	     1.1100	     0.9500;
	78	 2	 27.0	 70.0	 0.0	 0.0	 1	     1.0878	    -3.5711	 220.0	 3	     1.1100	     0.9500;
	79	 2	 9.0	 21.0	 0.0	 0.0	 1	     1.0883	    -4.1560	 220.0	 3	     1.1100	     0.9500;
	80	 1	 4.602	 0.91	 0.0	 0.0	 1	     1.0873	    -4.2560	 220.0	 3	     1.1100	     0.9500;
	81	 1	 0.0	 0.0	 0.0	 0.0	 1	     1.0873	    -4.2562	 220.0	 3	     1.1100	     0.9500;
	82	 2	 18.0	 57.0	 0.0	 0.0	 1	     1.0388	    -0.6556	 400.0	 3	     1.0500	     0.9500;
	83	 1	 0.0	 0.0	 0.0	 0.0	 1	     1.1079	    -2.5120	 220.0	 3	     1.1100	     0.9500;
	84	 1	 0.0	 0.0	 0.0	 0.0	 1	     1.0915	    -4.0745	 220.0	 3	     1.1100	     0.9500;
	85	 1	 0.0	 0.0	 0.0	 0.0	 1	     1.0915	    -4.0758	 220.0	 3	     1.1100	     0.9500;
	86	 1	 32.969	 -8.4	 0.0	 0.0	 1	     1.1006	    -1.6592	 220.0	 3	     1.1100	     0.9500;
	87	 1	 0.0	 0.0	 0.0	 0.0	 1	     1.1006	    -1.6637	 220.0	 3	     1.1100	     0.9500;
	88	 1	 0.0	 0.0	 0.0	 0.0	 1	     1.0865	    -3.6181	 220.0	 3	     1.1100	     0.9500;
	89	 1	 0.0	 0.0	 0.0	 0.0	 1	     1.0865	    -3.6185	 220.0	 3	     1.1100	     0.9500;
	90	 1	 0.0	 0.0	 0.0	 0.0	 1	     1.1004	    -1.2888	 220.0	 3	     1.1100	     0.9500;
	91	 1	 0.0	 0.0	 0.0	 0.0	 1	     1.1004	    -1.2923	 220.0	 3	     1.1100	     0.9500;
	92	 1	 0.0	 0.0	 0.0	 0.0	 1	     1.0486	     0.0470	 400.0	 3	     1.0500	     0.9500;
	93	 1	 0.0	 0.0	 0.0	 0.0	 1	     1.0486	     0.0460	 400.0	 3	     1.0500	     0.9500;
	94	 1	 0.0	 0.0	 0.0	 0.0	 1	     1.0899	    -3.7168	 220.0	 3	     1.1100	     0.9500;
	95	 1	 0.0	 0.0	 0.0	 0.0	 1	     1.0899	    -3.7218	 220.0	 3	     1.1100	     0.9500;
	96	 1	 0.0	 0.0	 0.0	 0.0	 1	     1.1006	    -2.9440	 220.0	 3	     1.1100	     0.9500;
	97	 1	 0.0	 0.0	 0.0	 0.0	 1	     1.1007	    -2.9418	 220.0	 3	     1.1100	     0.9500;
	98	 2	 9.938	 2.19	 0.0	 0.0	 1	     1.0911	    -3.8144	 220.0	 3	     1.1100	     0.9500;
	99	 1	 16.652	 3.293	 0.0	 0.0	 1	     1.0911	    -3.8120	 220.0	 3	     1.1100	     0.9500;
	100	 1	 0.0	 0.0	 0.0	 0.0	 1	     1.1007	    -4.4924	 220.0	 3	     1.1100	     0.9500;
	101	 1	 0.0	 0.0	 0.0	 0.0	 1	     1.1007	    -4.4937	 220.0	 3	     1.1100	     0.9500;
	102	 1	 0.0	 0.0	 0.0	 0.0	 1	     1.0818	    -7.4626	 220.0	 3	     1.1100	     0.9500;
	103	 1	 0.0	 0.0	 0.0	 0.0	 1	     1.0818	    -7.4523	 220.0	 3	     1.1100	     0.9500;
	104	 2	 14.0	 40.0	 0.0	 0.0	 1	     1.0923	    -4.0814	 220.0	 3	     1.1100	     0.9500;
	105	 1	 0.0	 0.0	 0.0	 0.0	 1	     1.0922	    -4.1003	 220.0	 3	     1.1100	     0.9500;
	106	 2	 7.0	 18.0	 0.0	 0.0	 1	     1.0901	    -3.3210	 220.0	 3	     1.1100	     0.9500;
	107	 1	 0.0	 0.0	 0.0	 0.0	 1	     1.0901	    -3.3208	 220.0	 3	     1.1100	     0.9500;
	108	 1	 27.63	 5.872	 0.0	 0.0	 1	     1.0944	    -3.3499	 220.0	 3	     1.1100	     0.9500;
	109	 1	 17.522	 3.337	 0.0	 0.0	 1	     1.0944	    -3.3571	 220.0	 3	     1.1100	     0.9500;
	110	 1	 0.0	 0.0	 0.0	 0.0	 1	     1.0857	    -4.6384	 220.0	 3	     1.1100	     0.9500;
	111	 1	 0.0	 0.0	 0.0	 0.0	 1	     1.0877	    -4.1208	 220.0	 3	     1.1100	     0.9500;
	112	 1	 0.0	 0.0	 0.0	 0.0	 1	     1.0877	    -4.1215	 220.0	 3	     1.1100	     0.9500;
	113	 1	 0.0	 0.0	 0.0	 0.0	 1	     1.0867	    -4.2665	 220.0	 3	     1.1100	     0.9500;
	114	 1	 0.0	 0.0	 0.0	 0.0	 1	     1.0867	    -4.2614	 220.0	 3	     1.1100	     0.9500;
	115	 1	 0.0	 0.0	 0.0	 0.0	 1	     1.0367	    -2.1113	 400.0	 3	     1.0500	     0.9500;
	116	 1	 0.0	 0.0	 0.0	 0.0	 1	     1.0892	    -3.8413	 220.0	 3	     1.1100	     0.9500;
	117	 2	 8.0	 15.0	 0.0	 0.0	 1	     1.0892	    -3.8319	 220.0	 3	     1.1100	     0.9500;
	118	 1	 0.0	 0.0	 0.0	 0.0	 1	     1.0883	    -4.4255	 220.0	 3	     1.1100	     0.9500;
	119	 1	 0.0	 0.0	 0.0	 0.0	 1	     1.0884	    -4.4243	 220.0	 3	     1.1100	     0.9500;
	120	 1	 0.0	 0.0	 0.0	 0.0	 1	     1.0471	    -3.9627	 400.0	 3	     1.0500	     0.9500;
	121	 1	 0.0	 0.0	 0.0	 0.0	 1	     1.0471	    -3.9587	 400.0	 3	     1.0500	     0.9500;
	122	 1	 0.0	 0.0	 0.0	 0.0	 1	     1.0431	    -1.9199	 400.0	 3	     1.0500	     0.9500;
	123	 1	 0.0	 0.0	 0.0	 0.0	 1	     1.0431	    -1.9170	 400.0	 3	     1.0500	     0.9500;
	124	 1	 0.0	 0.0	 0.0	 0.0	 1	     1.0851	    -4.7105	 220.0	 3	     1.1100	     0.9500;
	125	 1	 2.929	 0.867	 0.0	 0.0	 1	     1.0979	    -3.1117	 220.0	 3	     1.1100	     0.9500;
	126	 2	 19.898	 27.707	 0.0	 0.0	 1	     1.0978	    -3.1062	 220.0	 3	     1.1100	     0.9500;
	127	 2	 12.2	 25.8	 0.0	 0.0	 1	     1.0314	    -1.7714	 400.0	 3	     1.0500	     0.9500;
	128	 1	 0.0	 0.0	 0.0	 0.0	 1	     1.0314	    -1.7757	 400.0	 3	     1.0500	     0.9500;
	129	 1	 0.0	 0.0	 0.0	 0.0	 1	     1.1005	    -1.7534	 220.0	 3	     1.1100	     0.9500;
	130	 1	 0.0	 0.0	 0.0	 0.0	 1	     1.1004	    -1.7542	 220.0	 3	     1.1100	     0.9500;
	131	 1	 0.0	 0.0	 0.0	 0.0	 1	     1.0998	    -1.6361	 220.0	 3	     1.1100	     0.9500;
	132	 2	 137.0	 9.0	 0.0	 0.0	 1	     1.0806	    -8.4584	 220.0	 3	     1.1100	     0.9500;
	133	 2	 137.0	 6.0	 0.0	 0.0	 1	     1.0806	    -8.4631	 220.0	 3	     1.1100	     0.9500;
	134	 1	 0.515	 1.973	 0.0	 0.0	 1	     1.1010	    -2.5005	 220.0	 4	     1.1100	     0.9500;
	135	 2	 15.242	 14.277	 0.0	 0.0	 1	     1.1011	    -2.4978	 220.0	 4	     1.1100	     0.9500;
	136	 1	 0.0	 0.0	 0.0	 0.0	 1	     1.1090	    -2.9075	 220.0	 4	     1.1100	     0.9500;
	137	 1	 0.0	 0.0	 0.0	 0.0	 1	     1.1084	    -2.2905	 220.0	 4	     1.1100	     0.9500;
	138	 1	 0.0	 0.0	 0.0	 0.0	 1	     1.0336	    -2.2052	 400.0	 4	     1.0500	     0.9500;
	139	 1	 0.0	 0.0	 0.0	 0.0	 1	     1.0336	    -2.2078	 400.0	 4	     1.0500	     0.9500;
	140	 1	 0.0	 0.0	 0.0	 0.0	 1	     1.1019	    -7.2447	 220.0	 4	     1.1100	     0.9500;
	141	 1	 0.0	 0.0	 0.0	 0.0	 1	     1.0937	    -6.1673	 220.0	 4	     1.1100	     0.9500;
	142	 1	 0.0	 0.0	 0.0	 0.0	 1	     1.0937	    -6.1673	 220.0	 4	     1.1100	     0.9500;
	143	 1	 0.0	 0.0	 0.0	 0.0	 1	     1.1025	    -6.0409	 220.0	 4	     1.1100	     0.9500;
	144	 1	 0.0	 0.0	 0.0	 0.0	 1	     1.1064	    -3.4133	 220.0	 4	     1.1100	     0.9500;
	145	 1	 0.0	 0.0	 0.0	 0.0	 1	     1.1064	    -3.4133	 220.0	 4	     1.1100	     0.9500;
	146	 1	 7.636	 13.257	 0.0	 0.0	 1	     1.0991	    -4.3104	 220.0	 4	     1.1100	     0.9500;
	147	 1	 0.0	 0.0	 0.0	 0.0	 1	     1.0991	    -4.3087	 220.0	 4	     1.1100	     0.9500;
	148	 2	 10.87	 14.867	 0.0	 0.0	 1	     1.0964	    -5.3204	 220.0	 4	     1.1100	     0.9500;
	149	 1	 0.0	 0.0	 0.0	 0.0	 1	     1.0965	    -5.3319	 220.0	 4	     1.1100	     0.9500;
	150	 2	 10.989	 15.0	 0.0	 0.0	 1	     1.0337	    -8.0338	 400.0	 4	     1.0500	     0.9500;
	151	 2	 20.672	 21.479	 0.0	 0.0	 1	     1.0337	    -8.0315	 400.0	 4	     1.0500	     0.9500;
	152	 1	 0.0	 0.0	 0.0	 0.0	 1	     1.0984	    -6.7794	 220.0	 4	     1.1100	     0.9500;
	153	 1	 0.0	 0.0	 0.0	 0.0	 1	     1.1078	    -4.3612	 220.0	 4	     1.1100	     0.9500;
	154	 1	 0.0	 0.0	 0.0	 0.0	 1	     1.1078	    -4.3636	 220.0	 4	     1.1100	     0.9500;
	155	 2	 0.0	 0.0	 0.0	 0.0	 1	     1.1055	    -0.9184	 220.0	 4	     1.1100	     0.9500;
	156	 2	 13.87	 33.0	 0.0	 0.0	 1	     1.1055	    -0.9126	 220.0	 4	     1.1100	     0.9500;
	157	 1	 0.0	 0.0	 0.0	 0.0	 1	     1.0209	    -0.0242	 400.0	 4	     1.0500	     0.9500;
	158	 2	 9.989	 25.0	 0.0	 0.0	 1	     1.0209	    -0.0197	 400.0	 4	     1.0500	     0.9500;
	159	 1	 0.0	 0.0	 0.0	 0.0	 1	     1.0982	    -6.1687	 220.0	 4	     1.1100	     0.9500;
	160	 1	 0.0	 0.0	 0.0	 0.0	 1	     1.0982	    -6.1687	 220.0	 4	     1.1100	     0.9500;
	161	 1	 0.0	 0.0	 0.0	 0.0	 1	     1.0381	    -2.8508	 400.0	 4	     1.0500	     0.9500;
	162	 1	 0.0	 0.0	 0.0	 0.0	 1	     1.0381	    -2.3258	 400.0	 4	     1.0500	     0.9500;
	163	 1	 0.0	 0.0	 0.0	 0.0	 1	     1.0381	    -2.3254	 400.0	 4	     1.0500	     0.9500;
	164	 2	 11.664	 11.0	 0.0	 0.0	 1	     1.1006	    -4.4219	 220.0	 4	     1.1100	     0.9500;
	165	 2	 11.564	 10.667	 0.0	 0.0	 1	     1.1006	    -4.4366	 220.0	 4	     1.1100	     0.9500;
	166	 1	 0.0	 0.0	 0.0	 0.0	 1	     1.1006	    -4.4366	 220.0	 4	     1.1100	     0.9500;
	167	 1	 0.0	 0.0	 0.0	 0.0	 1	     1.1079	   -11.1882	 220.0	 4	     1.1100	     0.9500;
	168	 1	 0.0	 0.0	 0.0	 0.0	 1	     1.0930	    -6.2259	 220.0	 4	     1.1100	     0.9500;
	169	 1	 0.0	 0.0	 0.0	 0.0	 1	     1.1079	    -7.7993	 220.0	 4	     1.1100	     0.9500;
	170	 1	 0.0	 0.0	 0.0	 0.0	 1	     1.1079	    -7.8048	 220.0	 4	     1.1100	     0.9500;
	171	 1	 0.0	 0.0	 0.0	 0.0	 1	     1.0274	    -8.0768	 400.0	 4	     1.0500	     0.9500;
	172	 1	 0.0	 0.0	 0.0	 0.0	 1	     1.0274	    -8.0768	 400.0	 4	     1.0500	     0.9500;
	173	 1	 0.0	 0.0	 0.0	 0.0	 1	     1.0972	    -4.9314	 220.0	 4	     1.1100	     0.9500;
	174	 1	 0.0	 0.0	 0.0	 0.0	 1	     1.0972	    -4.9292	 220.0	 4	     1.1100	     0.9500;
	175	 1	 0.0	 0.0	 0.0	 0.0	 1	     1.0936	    -6.2290	 220.0	 4	     1.1100	     0.9500;
	176	 1	 0.0	 0.0	 0.0	 0.0	 1	     1.1087	    -2.8519	 220.0	 4	     1.1100	     0.9500;
	177	 1	 0.0	 0.0	 0.0	 0.0	 1	     1.1087	    -2.8507	 220.0	 4	     1.1100	     0.9500;
	178	 1	 0.0	 0.0	 0.0	 0.0	 1	     1.1100	    -3.0396	 220.0	 4	     1.1100	     0.9500;
	179	 1	 0.0	 0.0	 0.0	 0.0	 1	     1.1100	    -3.0396	 220.0	 4	     1.1100	     0.9500;
	180	 2	 3.13	 1.5	 0.0	 0.0	 1	     1.1100	    -3.4533	 220.0	 4	     1.1100	     0.9500;
	181	 1	 0.0	 0.0	 0.0	 0.0	 1	     1.0977	    -5.2093	 220.0	 4	     1.1100	     0.9500;
	182	 1	 0.0	 0.0	 0.0	 0.0	 1	     1.0906	   -11.5507	 220.0	 5	     1.1100	     0.9500;
	183	 1	 0.0	 0.0	 0.0	 0.0	 1	     1.1016	   -14.2079	 220.0	 5	     1.1100	     0.9500;
	184	 1	 0.0	 0.0	 0.0	 0.0	 1	     1.0352	   -13.7588	 400.0	 5	     1.0500	     0.9500;
	185	 1	 0.0	 0.0	 0.0	 0.0	 1	     1.0352	   -13.7507	 400.0	 5	     1.0500	     0.9500;
	186	 1	 0.0	 0.0	 0.0	 0.0	 1	     1.0359	   -16.3095	 400.0	 5	     1.0500	     0.9500;
	187	 1	 0.0	 0.0	 0.0	 0.0	 1	     1.0359	   -16.3151	 400.0	 5	     1.0500	     0.9500;
	188	 1	 0.0	 0.0	 0.0	 0.0	 1	     1.1013	   -15.7994	 220.0	 5	     1.1100	     0.9500;
	189	 1	 0.0	 0.0	 0.0	 0.0	 1	     1.1014	   -15.7999	 220.0	 5	     1.1100	     0.9500;
	190	 1	 0.0	 0.0	 0.0	 0.0	 1	     1.0968	   -13.6475	 220.0	 5	     1.1100	     0.9500;
	191	 1	 0.0	 0.0	 0.0	 0.0	 1	     1.0968	   -13.6413	 220.0	 5	     1.1100	     0.9500;
	192	 1	 0.0	 0.0	 0.0	 0.0	 1	     1.0251	   -11.5367	 400.0	 5	     1.0500	     0.9500;
	193	 1	 0.0	 0.0	 0.0	 0.0	 1	     1.0911	   -11.1197	 220.0	 5	     1.1100	     0.9500;
	194	 1	 0.0	 0.0	 0.0	 0.0	 1	     1.0911	   -11.1186	 220.0	 5	     1.1100	     0.9500;
	195	 1	 0.0	 0.0	 0.0	 0.0	 1	     1.0431	   -16.2356	 400.0	 5	     1.0500	     0.9500;
	196	 1	 0.0	 0.0	 0.0	 0.0	 1	     1.0431	   -16.2353	 400.0	 5	     1.0500	     0.9500;
	197	 1	 0.0	 0.0	 0.0	 0.0	 1	     1.0714	   -13.7759	 220.0	 5	     1.1100	     0.9500;
	198	 1	 0.0	 0.0	 0.0	 0.0	 1	     1.0714	   -13.7747	 220.0	 5	     1.1100	     0.9500;
	199	 1	 0.0	 0.0	 0.0	 -117.0	 1	     1.0270	   -15.5506	 400.0	 5	     1.0500	     0.9500;
	200	 1	 0.0	 0.0	 0.0	 0.0	 1	     1.0270	   -15.5435	 400.0	 5	     1.0500	     0.9500;
...
];

%% generator data
%	bus	Pg	Qg	Qmax	Qmin	Vg	mBase	status	Pmax	Pmin	Pc1	Pc2	Qc1min	Qc1max	Qc2min	Qc2max	ramp_agc	ramp_10	ramp_30	ramp_q	apf
mpc.gen = [
	17	 0.0	 0.0	 120.0	 -22.0	 1.07567	 241.9	 0	 210.0	 140.0	 0.0	 0.0	 0.0	 0.0	 0.0	 0.0	 0.0	 0.0	 0.0	 0.0	 0.0;
	17	 0.0	 0.0	 120.0	 -22.0	 1.07567	 233.2	 0	 200.0	 140.0	 0.0	 0.0	 0.0	 0.0	 0.0	 0.0	 0.0	 0.0	 0.0	 0.0	 0.0;
	26	 370.0	 2.61068	 190.0	 -19.0	 1.08527	 415.9	 1	 370.0	 290.0	 0.0	 0.0	 0.0	 0.0	 0.0	 0.0	 0.0	 0.0	 0.0	 0.0	 0.0;
	27	 360.0	 -19.0	 190.0	 -19.0	 1.08827	 407.1	 1	 360.0	 290.0	 0.0	 0.0	 0.0	 0.0	 0.0	 0.0	 0.0	 0.0	 0.0	 0.0	 0.0;
	27	 0.0	 0.0	 190.0	 -19.0	 1.08827	 407.1	 0	 360.0	 290.0	 0.0	 0.0	 0.0	 0.0	 0.0	 0.0	 0.0	 0.0	 0.0	 0.0	 0.0;
	27	 0.0	 0.0	 190.0	 -19.0	 1.08827	 415.9	 0	 370.0	 290.0	 0.0	 0.0	 0.0	 0.0	 0.0	 0.0	 0.0	 0.0	 0.0	 0.0	 0.0;
	26	 370.0	 2.61068	 190.0	 -19.0	 1.08527	 415.9	 1	 370.0	 290.0	 0.0	 0.0	 0.0	 0.0	 0.0	 0.0	 0.0	 0.0	 0.0	 0.0	 0.0;
	28	 370.0	 -19.0	 190.0	 -19.0	 1.027	 415.9	 1	 370.0	 290.0	 0.0	 0.0	 0.0	 0.0	 0.0	 0.0	 0.0	 0.0	 0.0	 0.0	 0.0;
	28	 0.0	 0.0	 190.0	 -19.0	 1.027	 415.9	 0	 370.0	 290.0	 0.0	 0.0	 0.0	 0.0	 0.0	 0.0	 0.0	 0.0	 0.0	 0.0	 0.0;
	28	 0.0	 0.0	 190.0	 -19.0	 1.027	 415.9	 0	 370.0	 290.0	 0.0	 0.0	 0.0	 0.0	 0.0	 0.0	 0.0	 0.0	 0.0	 0.0	 0.0;
	29	 0.0	 0.0	 190.0	 -19.0	 1.027	 415.9	 0	 370.0	 290.0	 0.0	 0.0	 0.0	 0.0	 0.0	 0.0	 0.0	 0.0	 0.0	 0.0	 0.0;
	29	 370.0	 -19.0	 190.0	 -19.0	 1.027	 415.9	 1	 370.0	 290.0	 0.0	 0.0	 0.0	 0.0	 0.0	 0.0	 0.0	 0.0	 0.0	 0.0	 0.0;
	29	 370.0	 -19.0	 190.0	 -19.0	 1.027	 415.9	 1	 370.0	 290.0	 0.0	 0.0	 0.0	 0.0	 0.0	 0.0	 0.0	 0.0	 0.0	 0.0	 0.0;
	42	 130.0	 -34.0	 135.0	 -34.0	 1.09086	 253.9	 1	 215.0	 130.0	 0.0	 0.0	 0.0	 0.0	 0.0	 0.0	 0.0	 0.0	 0.0	 0.0	 0.0;
	42	 0.0	 0.0	 130.0	 -34.0	 1.09086	 242.7	 0	 205.0	 135.0	 0.0	 0.0	 0.0	 0.0	 0.0	 0.0	 0.0	 0.0	 0.0	 0.0	 0.0;
	42	 0.0	 0.0	 145.0	 -34.0	 1.09086	 267.7	 0	 225.0	 110.0	 0.0	 0.0	 0.0	 0.0	 0.0	 0.0	 0.0	 0.0	 0.0	 0.0	 0.0;
	43	 0.0	 0.0	 145.0	 -34.0	 1.09091	 267.7	 0	 225.0	 120.0	 0.0	 0.0	 0.0	 0.0	 0.0	 0.0	 0.0	 0.0	 0.0	 0.0	 0.0;
	43	 130.0	 -34.0	 145.0	 -34.0	 1.09091	 267.7	 1	 225.0	 130.0	 0.0	 0.0	 0.0	 0.0	 0.0	 0.0	 0.0	 0.0	 0.0	 0.0	 0.0;
	43	 0.0	 0.0	 130.0	 -34.0	 1.09091	 242.7	 0	 205.0	 135.0	 0.0	 0.0	 0.0	 0.0	 0.0	 0.0	 0.0	 0.0	 0.0	 0.0	 0.0;
	44	 255.0	 -47.0	 363.0	 -47.0	 1.04817	 646.5	 1	 535.0	 255.0	 0.0	 0.0	 0.0	 0.0	 0.0	 0.0	 0.0	 0.0	 0.0	 0.0	 0.0;
	44	 0.0	 0.0	 348.0	 -100.0	 1.04817	 659.3	 0	 560.0	 250.0	 0.0	 0.0	 0.0	 0.0	 0.0	 0.0	 0.0	 0.0	 0.0	 0.0	 0.0;
	54	 0.0	 0.0	 104.0	 -1.0	 1.09127	 247.9	 0	 225.0	 129.0	 0.0	 0.0	 0.0	 0.0	 0.0	 0.0	 0.0	 0.0	 0.0	 0.0	 0.0;
	55	 129.0	 -16.0	 130.0	 -16.0	 1.09126	 259.9	 1	 225.0	 129.0	 0.0	 0.0	 0.0	 0.0	 0.0	 0.0	 0.0	 0.0	 0.0	 0.0	 0.0;
	54	 0.0	 0.0	 130.0	 -16.0	 1.09127	 259.9	 0	 225.0	 129.0	 0.0	 0.0	 0.0	 0.0	 0.0	 0.0	 0.0	 0.0	 0.0	 0.0	 0.0;
	56	 129.0	 -16.0	 130.0	 -16.0	 1.03933	 259.9	 1	 225.0	 129.0	 0.0	 0.0	 0.0	 0.0	 0.0	 0.0	 0.0	 0.0	 0.0	 0.0	 0.0;
	57	 129.0	 -16.0	 130.0	 -16.0	 1.03932	 259.9	 1	 225.0	 129.0	 0.0	 0.0	 0.0	 0.0	 0.0	 0.0	 0.0	 0.0	 0.0	 0.0	 0.0;
	57	 0.0	 0.0	 104.0	 -1.0	 1.03932	 247.9	 0	 225.0	 129.0	 0.0	 0.0	 0.0	 0.0	 0.0	 0.0	 0.0	 0.0	 0.0	 0.0	 0.0;
	57	 0.0	 0.0	 130.0	 -16.0	 1.03932	 259.9	 0	 225.0	 129.0	 0.0	 0.0	 0.0	 0.0	 0.0	 0.0	 0.0	 0.0	 0.0	 0.0	 0.0;
	58	 39.7	 0.0	 30.0	 0.0	 1.09864	 57.7	 1	 39.7	 39.7	 0.0	 0.0	 0.0	 0.0	 0.0	 0.0	 0.0	 0.0	 0.0	 0.0	 0.0;
	78	 140.0	 21.9558	 123.0	 -15.0	 1.06723	 256.4	 1	 225.0	 140.0	 0.0	 0.0	 0.0	 0.0	 0.0	 0.0	 0.0	 0.0	 0.0	 0.0	 0.0;
	78	 140.0	 4.97652	 123.0	 -15.0	 1.06723	 256.4	 1	 225.0	 140.0	 0.0	 0.0	 0.0	 0.0	 0.0	 0.0	 0.0	 0.0	 0.0	 0.0	 0.0;
	79	 0.0	 0.0	 123.0	 -15.0	 1.07077	 252.0	 0	 220.0	 140.0	 0.0	 0.0	 0.0	 0.0	 0.0	 0.0	 0.0	 0.0	 0.0	 0.0	 0.0;
	79	 0.0	 0.0	 123.0	 -15.0	 1.07077	 256.4	 0	 225.0	 140.0	 0.0	 0.0	 0.0	 0.0	 0.0	 0.0	 0.0	 0.0	 0.0	 0.0	 0.0;
	79	 140.0	 -15.0	 123.0	 -15.0	 1.07077	 256.4	 1	 225.0	 140.0	 0.0	 0.0	 0.0	 0.0	 0.0	 0.0	 0.0	 0.0	 0.0	 0.0	 0.0;
	82	 380.0	 -31.0	 232.0	 -31.0	 1.0186	 445.2	 1	 380.0	 220.0	 0.0	 0.0	 0.0	 0.0	 0.0	 0.0	 0.0	 0.0	 0.0	 0.0	 0.0;
	82	 0.0	 0.0	 228.0	 -30.0	 1.0186	 434.6	 0	 370.0	 220.0	 0.0	 0.0	 0.0	 0.0	 0.0	 0.0	 0.0	 0.0	 0.0	 0.0	 0.0;
	98	 8.998	 0.0	 1.0	 0.0	 1.07416	 12.0	 1	 8.998	 8.998	 0.0	 0.0	 0.0	 0.0	 0.0	 0.0	 0.0	 0.0	 0.0	 0.0	 0.0;
	98	 5.998	 0.0	 1.0	 0.0	 1.07416	 6.1	 1	 5.998	 5.998	 0.0	 0.0	 0.0	 0.0	 0.0	 0.0	 0.0	 0.0	 0.0	 0.0	 0.0;
	104	 134.0	 78.277	 123.0	 -15.0	 1.06927	 256.4	 1	 225.0	 134.0	 0.0	 0.0	 0.0	 0.0	 0.0	 0.0	 0.0	 0.0	 0.0	 0.0	 0.0;
	105	 0.0	 0.0	 123.0	 -15.0	 1.06917	 256.4	 0	 225.0	 134.0	 0.0	 0.0	 0.0	 0.0	 0.0	 0.0	 0.0	 0.0	 0.0	 0.0	 0.0;
	106	 79.0	 3.09041	 80.0	 -2.0	 1.06843	 144.2	 1	 120.0	 79.0	 0.0	 0.0	 0.0	 0.0	 0.0	 0.0	 0.0	 0.0	 0.0	 0.0	 0.0;
	107	 0.0	 0.0	 80.0	 -2.0	 1.0684	 144.2	 0	 120.0	 79.0	 0.0	 0.0	 0.0	 0.0	 0.0	 0.0	 0.0	 0.0	 0.0	 0.0	 0.0;
	116	 0.0	 0.0	 90.0	 -20.0	 1.07086	 150.0	 0	 120.0	 90.0	 0.0	 0.0	 0.0	 0.0	 0.0	 0.0	 0.0	 0.0	 0.0	 0.0	 0.0;
	117	 70.0	 -2.0	 82.0	 -2.0	 1.07082	 145.3	 1	 120.0	 70.0	 0.0	 0.0	 0.0	 0.0	 0.0	 0.0	 0.0	 0.0	 0.0	 0.0	 0.0;
	118	 0.0	 0.0	 40.0	 0.0	 1.07063	 117.0	 0	 110.0	 80.0	 0.0	 0.0	 0.0	 0.0	 0.0	 0.0	 0.0	 0.0	 0.0	 0.0	 0.0;
	125	 0.0	 0.0	 135.0	 -35.0	 1.0744	 253.9	 0	 215.0	 160.0	 0.0	 0.0	 0.0	 0.0	 0.0	 0.0	 0.0	 0.0	 0.0	 0.0	 0.0;
	126	 0.0	 0.0	 140.0	 -35.0	 1.07421	 265.0	 0	 225.0	 140.0	 0.0	 0.0	 0.0	 0.0	 0.0	 0.0	 0.0	 0.0	 0.0	 0.0	 0.0;
	126	 215.0	 -35.0	 135.0	 -35.0	 1.07421	 253.9	 1	 215.0	 160.0	 0.0	 0.0	 0.0	 0.0	 0.0	 0.0	 0.0	 0.0	 0.0	 0.0	 0.0;
	127	 225.0	 -40.0	 140.0	 -40.0	 1.01239	 265.0	 1	 225.0	 140.0	 0.0	 0.0	 0.0	 0.0	 0.0	 0.0	 0.0	 0.0	 0.0	 0.0	 0.0;
	127	 0.0	 0.0	 137.0	 -40.0	 1.01239	 259.2	 0	 220.0	 160.0	 0.0	 0.0	 0.0	 0.0	 0.0	 0.0	 0.0	 0.0	 0.0	 0.0	 0.0;
	132	 0.0	 16.868	 40.0	 -38.0	 1.06355	 131.2	 1	 0.0	 0.0	 0.0	 0.0	 0.0	 0.0	 0.0	 0.0	 0.0	 0.0	 0.0	 0.0	 0.0;
	132	 0.0	 0.0	 40.0	 -38.0	 1.06355	 131.2	 0	 0.0	 0.0	 0.0	 0.0	 0.0	 0.0	 0.0	 0.0	 0.0	 0.0	 0.0	 0.0	 0.0;
	133	 0.0	 0.0	 40.0	 -38.0	 1.06355	 131.2	 0	 0.0	 0.0	 0.0	 0.0	 0.0	 0.0	 0.0	 0.0	 0.0	 0.0	 0.0	 0.0	 0.0;
	133	 0.0	 13.9428	 40.0	 -38.0	 1.06355	 131.2	 1	 0.0	 0.0	 0.0	 0.0	 0.0	 0.0	 0.0	 0.0	 0.0	 0.0	 0.0	 0.0	 0.0;
	134	 0.0	 0.0	 90.0	 0.0	 1.0664	 150.0	 0	 120.0	 100.0	 0.0	 0.0	 0.0	 0.0	 0.0	 0.0	 0.0	 0.0	 0.0	 0.0	 0.0;
	134	 0.0	 0.0	 90.0	 0.0	 1.0664	 150.0	 0	 120.0	 100.0	 0.0	 0.0	 0.0	 0.0	 0.0	 0.0	 0.0	 0.0	 0.0	 0.0	 0.0;
	135	 100.0	 27.1095	 90.0	 0.0	 1.06642	 150.0	 1	 120.0	 100.0	 0.0	 0.0	 0.0	 0.0	 0.0	 0.0	 0.0	 0.0	 0.0	 0.0	 0.0;
	146	 0.0	 0.0	 12.0	 0.0	 1.05776	 51.4	 0	 50.0	 30.0	 0.0	 0.0	 0.0	 0.0	 0.0	 0.0	 0.0	 0.0	 0.0	 0.0	 0.0;
	146	 0.0	 0.0	 12.0	 0.0	 1.05776	 51.4	 0	 50.0	 30.0	 0.0	 0.0	 0.0	 0.0	 0.0	 0.0	 0.0	 0.0	 0.0	 0.0	 0.0;
	147	 0.0	 0.0	 90.0	 0.0	 1.05781	 150.0	 0	 120.0	 90.0	 0.0	 0.0	 0.0	 0.0	 0.0	 0.0	 0.0	 0.0	 0.0	 0.0	 0.0;
	148	 0.0	 0.0	 149.0	 -48.0	 1.09091	 267.4	 0	 222.0	 90.0	 0.0	 0.0	 0.0	 0.0	 0.0	 0.0	 0.0	 0.0	 0.0	 0.0	 0.0;
	148	 0.0	 0.0	 149.0	 -48.0	 1.09091	 253.4	 0	 205.0	 135.0	 0.0	 0.0	 0.0	 0.0	 0.0	 0.0	 0.0	 0.0	 0.0	 0.0	 0.0;
	148	 0.0	 0.0	 149.0	 -48.0	 1.09091	 253.4	 0	 205.0	 135.0	 0.0	 0.0	 0.0	 0.0	 0.0	 0.0	 0.0	 0.0	 0.0	 0.0	 0.0;
	148	 90.0	 -48.0	 149.0	 -48.0	 1.09091	 267.4	 1	 222.0	 90.0	 0.0	 0.0	 0.0	 0.0	 0.0	 0.0	 0.0	 0.0	 0.0	 0.0	 0.0;
	150	 90.0	 24.8292	 123.0	 -23.0	 1.01688	 253.8	 1	 222.0	 90.0	 0.0	 0.0	 0.0	 0.0	 0.0	 0.0	 0.0	 0.0	 0.0	 0.0	 0.0;
	151	 90.0	 -41.4177	 149.0	 -48.0	 1.01688	 267.4	 1	 222.0	 90.0	 0.0	 0.0	 0.0	 0.0	 0.0	 0.0	 0.0	 0.0	 0.0	 0.0	 0.0;
	151	 0.0	 0.0	 123.0	 -23.0	 1.01688	 253.8	 0	 222.0	 90.0	 0.0	 0.0	 0.0	 0.0	 0.0	 0.0	 0.0	 0.0	 0.0	 0.0	 0.0;
	155	 94.0	 -53.0	 149.0	 -53.0	 1.08864	 278.3	 1	 235.0	 94.0	 0.0	 0.0	 0.0	 0.0	 0.0	 0.0	 0.0	 0.0	 0.0	 0.0	 0.0;
	155	 0.0	 0.0	 149.0	 -53.0	 1.08864	 278.3	 0	 235.0	 94.0	 0.0	 0.0	 0.0	 0.0	 0.0	 0.0	 0.0	 0.0	 0.0	 0.0	 0.0;
	155	 0.0	 0.0	 120.0	 0.0	 1.08864	 287.3	 0	 261.0	 104.0	 0.0	 0.0	 0.0	 0.0	 0.0	 0.0	 0.0	 0.0	 0.0	 0.0	 0.0;
	155	 0.0	 0.0	 132.0	 -40.0	 1.08864	 292.5	 0	 261.0	 104.0	 0.0	 0.0	 0.0	 0.0	 0.0	 0.0	 0.0	 0.0	 0.0	 0.0	 0.0;
	156	 0.0	 0.0	 120.0	 0.0	 1.08864	 287.3	 0	 261.0	 104.0	 0.0	 0.0	 0.0	 0.0	 0.0	 0.0	 0.0	 0.0	 0.0	 0.0	 0.0;
	156	 130.0	 -22.0	 117.0	 -22.0	 1.08864	 236.0	 1	 205.0	 130.0	 0.0	 0.0	 0.0	 0.0	 0.0	 0.0	 0.0	 0.0	 0.0	 0.0	 0.0;
	156	 120.0	 -20.0	 109.0	 -20.0	 1.08864	 233.1	 1	 206.0	 120.0	 0.0	 0.0	 0.0	 0.0	 0.0	 0.0	 0.0	 0.0	 0.0	 0.0	 0.0;
	156	 0.0	 0.0	 109.0	 -20.0	 1.08864	 233.1	 0	 206.0	 120.0	 0.0	 0.0	 0.0	 0.0	 0.0	 0.0	 0.0	 0.0	 0.0	 0.0	 0.0;
	158	 120.0	 -20.0	 109.0	 -20.0	 0.99847	 233.1	 1	 206.0	 120.0	 0.0	 0.0	 0.0	 0.0	 0.0	 0.0	 0.0	 0.0	 0.0	 0.0	 0.0;
	164	 0.0	 0.0	 104.0	 -23.0	 1.05768	 225.4	 0	 200.0	 150.0	 0.0	 0.0	 0.0	 0.0	 0.0	 0.0	 0.0	 0.0	 0.0	 0.0	 0.0;
	164	 200.0	 64.2167	 104.0	 -23.0	 1.05768	 225.4	 1	 200.0	 150.0	 0.0	 0.0	 0.0	 0.0	 0.0	 0.0	 0.0	 0.0	 0.0	 0.0	 0.0;
	165	 200.0	 75.1437	 104.0	 -23.0	 1.05768	 225.4	 1	 200.0	 150.0	 0.0	 0.0	 0.0	 0.0	 0.0	 0.0	 0.0	 0.0	 0.0	 0.0	 0.0;
	165	 0.0	 0.0	 104.0	 -23.0	 1.05768	 225.4	 0	 200.0	 150.0	 0.0	 0.0	 0.0	 0.0	 0.0	 0.0	 0.0	 0.0	 0.0	 0.0	 0.0;
	180	 120.0	 0.0	 110.0	 0.0	 1.09138	 219.5	 1	 120.0	 120.0	 0.0	 0.0	 0.0	 0.0	 0.0	 0.0	 0.0	 0.0	 0.0	 0.0	 0.0;
	205	 0.0	 39.4264	 80.0	 -30.001	 0.98664	 196.1	 1	 0.0	 0.0	 0.0	 0.0	 0.0	 0.0	 0.0	 0.0	 0.0	 0.0	 0.0	 0.0	 0.0;
	205	 0.0	 -16.382	 80.0	 -30.001	 0.98664	 196.1	 1	 0.0	 0.0	 0.0	 0.0	 0.0	 0.0	 0.0	 0.0	 0.0	 0.0	 0.0	 0.0	 0.0;
	205	 0.0	 0.0	 110.0	 -60.0	 0.98664	 210.1	 0	 0.0	 0.0	 0.0	 0.0	 0.0	 0.0	 0.0	 0.0	 0.0	 0.0	 0.0	 0.0	 0.0;
	206	 0.0	 0.0	 110.0	 -60.0	 0.98669	 210.1	 0	 0.0	 0.0	 0.0	 0.0	 0.0	 0.0	 0.0	 0.0	 0.0	 0.0	 0.0	 0.0	 0.0;
	215	 23.0	 0.0	 20.0	 0.0	 1.09091	 58.5	 1	 23.0	 23.0	 0.0	 0.0	 0.0	 0.0	 0.0	 0.0	 0.0	 0.0	 0.0	 0.0	 0.0;
	215	 0.0	 0.0	 20.0	 0.0	 1.09091	 53.9	 0	 0.0	 0.0	 0.0	 0.0	 0.0	 0.0	 0.0	 0.0	 0.0	 0.0	 0.0	 0.0	 0.0;
	215	 0.0	 0.0	 20.0	 0.0	 1.09091	 53.9	 0	 0.0	 0.0	 0.0	 0.0	 0.0	 0.0	 0.0	 0.0	 0.0	 0.0	 0.0	 0.0	 0.0;
	215	 7.0	 0.0	 20.0	 0.0	 1.09091	 30.5	 1	 7.0	 7.0	 0.0	 0.0	 0.0	 0.0	 0.0	 0.0	 0.0	 0.0	 0.0	 0.0	 0.0;
	221	 1.55	 0.0	 1.0	 0.0	 1.0868	 2.3	 1	 1.55	 1.55	 0.0	 0.0	 0.0	 0.0	 0.0	 0.0	 0.0	 0.0	 0.0	 0.0	 0.0;
	222	 1.55	 0.262495	 1.0	 0.0	 1.0748	 2.3	 1	 1.55	 1.55	 0.0	 0.0	 0.0	 0.0	 0.0	 0.0	 0.0	 0.0	 0.0	 0.0	 0.0;
	240	 6.3	 4.18608	 6.0	 0.0	 1.05704	 9.8	 1	 6.3	 6.3	 0.0	 0.0	 0.0	 0.0	 0.0	 0.0	 0.0	 0.0	 0.0	 0.0	 0.0;
	247	 370.0	 -19.0	 190.0	 -19.0	 1.02878	 415.9	 1	 370.0	 290.0	 0.0	 0.0	 0.0	 0.0	 0.0	 0.0	 0.0	 0.0	 0.0	 0.0	 0.0;
	310	 0.0	 0.0	 7.0	 0.0	 1.07912	 27.9	 0	 0.0	 0.0	 0.0	 0.0	 0.0	 0.0	 0.0	 0.0	 0.0	 0.0	 0.0	 0.0	 0.0;
	310	 0.0	 0.0	 7.0	 0.0	 1.07912	 27.9	 0	 0.0	 0.0	 0.0	 0.0	 0.0	 0.0	 0.0	 0.0	 0.0	 0.0	 0.0	 0.0	 0.0;
	310	 11.0	 7.0	 7.0	 4.0	 1.07912	 30.8	 1	 11.0	 11.0	 0.0	 0.0	 0.0	 0.0	 0.0	 0.0	 0.0	 0.0	 0.0	 0.0	 0.0;
	310	 0.0	 0.0	 7.0	 0.0	 1.07912	 27.9	 0	 0.0	 0.0	 0.0	 0.0	 0.0	 0.0	 0.0	 0.0	 0.0	 0.0	 0.0	 0.0	 0.0;
	310	 0.0	 0.0	 6.0	 0.0	 1.07912	 27.7	 0	 0.0	 0.0	 0.0	 0.0	 0.0	 0.0	 0.0	 0.0	 0.0	 0.0	 0.0	 0.0	 0.0;
	310	 0.0	 0.0	 7.0	 0.0	 1.07912	 27.9	 0	 0.0	 0.0	 0.0	 0.0	 0.0	 0.0	 0.0	 0.0	 0.0	 0.0	 0.0	 0.0	 0.0;
	310	 0.0	 0.0	 7.0	 0.0	 1.07912	 27.9	 0	 0.0	 0.0	 0.0	 0.0	 0.0	 0.0	 0.0	 0.0	 0.0	 0.0	 0.0	 0.0	 0.0;
	311	 0.0	 0.0	 15.0	 0.0	 1.07689	 36.7	 0	 0.0	 0.0	 0.0	 0.0	 0.0	 0.0	 0.0	 0.0	 0.0	 0.0	 0.0	 0.0	 0.0;
	311	 0.0	 0.0	 15.0	 0.0	 1.07689	 57.0	 0	 0.0	 0.0	 0.0	 0.0	 0.0	 0.0	 0.0	 0.0	 0.0	 0.0	 0.0	 0.0	 0.0;
	312	 16.0	 11.5985	 15.0	 0.0	 1.07487	 36.7	 1	 16.0	 16.0	 0.0	 0.0	 0.0	 0.0	 0.0	 0.0	 0.0	 0.0	 0.0	 0.0	 0.0;
	312	 0.0	 0.0	 15.0	 0.0	 1.07487	 57.0	 0	 0.0	 0.0	 0.0	 0.0	 0.0	 0.0	 0.0	 0.0	 0.0	 0.0	 0.0	 0.0	 0.0;
	314	 25.0	 5.94042	 20.0	 0.0	 1.08518	 53.9	 1	 25.0	 25.0	 0.0	 0.0	 0.0	 0.0	 0.0	 0.0	 0.0	 0.0	 0.0	 0.0	 0.0;
	314	 0.0	 0.0	 20.0	 0.0	 1.08518	 53.9	 0	 0.0	 0.0	 0.0	 0.0	 0.0	 0.0	 0.0	 0.0	 0.0	 0.0	 0.0	 0.0	 0.0;
	315	 0.0	 0.0	 40.0	 0.0	 1.07925	 107.7	 0	 0.0	 0.0	 0.0	 0.0	 0.0	 0.0	 0.0	 0.0	 0.0	 0.0	 0.0	 0.0	 0.0;
	323	 2.5	 3.0	 3.0	 0.0	 1.08432	 4.1	 1	 2.5	 2.5	 0.0	 0.0	 0.0	 0.0	 0.0	 0.0	 0.0	 0.0	 0.0	 0.0	 0.0;
	366	 40.0	 6.08732	 12.0	 0.0	 1.06091	 47.8	 1	 40.0	 40.0	 0.0	 0.0	 0.0	 0.0	 0.0	 0.0	 0.0	 0.0	 0.0	 0.0	 0.0;
	367	 40.0	 5.46894	 12.0	 0.0	 1.06011	 47.8	 1	 40.0	 40.0	 0.0	 0.0	 0.0	 0.0	 0.0	 0.0	 0.0	 0.0	 0.0	 0.0	 0.0;
	368	 40.0	 4.52361	 12.0	 0.0	 1.06213	 47.8	 1	 40.0	 40.0	 0.0	 0.0	 0.0	 0.0	 0.0	 0.0	 0.0	 0.0	 0.0	 0.0	 0.0;
	369	 40.0	 0.0	 12.0	 0.0	 1.06706	 47.8	 1	 40.0	 40.0	 0.0	 0.0	 0.0	 0.0	 0.0	 0.0	 0.0	 0.0	 0.0	 0.0	 0.0;
	386	 140.0	 -45.4985	 138.0	 -47.0	 1.08555	 251.3	 1	 210.0	 140.0	 0.0	 0.0	 0.0	 0.0	 0.0	 0.0	 0.0	 0.0	 0.0	 0.0	 0.0;
	386	 0.0	 0.0	 10.0	 0.0	 1.08555	 26.9	 0	 25.0	 12.0	 0.0	 0.0	 0.0	 0.0	 0.0	 0.0	 0.0	 0.0	 0.0	 0.0	 0.0;
	387	 10.0	 0.0	 10.0	 0.0	 1.06898	 19.7	 1	 17.0	 10.0	 0.0	 0.0	 0.0	 0.0	 0.0	 0.0	 0.0	 0.0	 0.0	 0.0	 0.0;
	444	 1.5	 1.56509	 2.0	 0.0	 1.03619	 3.6	 1	 1.5	 1.5	 0.0	 0.0	 0.0	 0.0	 0.0	 0.0	 0.0	 0.0	 0.0	 0.0	 0.0;
	453	 5.21	 0.0	 2.0	 0.0	 1.0809	 6.1	 1	 5.21	 5.21	 0.0	 0.0	 0.0	 0.0	 0.0	 0.0	 0.0	 0.0	 0.0	 0.0	 0.0;
	453	 0.0	 0.0	 2.0	 0.0	 1.0809	 6.1	 0	 0.0	 0.0	 0.0	 0.0	 0.0	 0.0	 0.0	 0.0	 0.0	 0.0	 0.0	 0.0	 0.0;
	486	 1.4	 0.7	 0.7	 0.0	 1.03025	 1.7	 1	 1.4	 1.4	 0.0	 0.0	 0.0	 0.0	 0.0	 0.0	 0.0	 0.0	 0.0	 0.0	 0.0;
	537	 25.0	 0.0	 14.0	 0.0	 1.06135	 53.9	 1	 25.0	 25.0	 0.0	 0.0	 0.0	 0.0	 0.0	 0.0	 0.0	 0.0	 0.0	 0.0	 0.0;
	537	 0.0	 0.0	 14.0	 0.0	 1.06135	 34.9	 0	 0.0	 0.0	 0.0	 0.0	 0.0	 0.0	 0.0	 0.0	 0.0	 0.0	 0.0	 0.0	 0.0;
	537	 0.0	 0.0	 14.0	 0.0	 1.06135	 34.0	 0	 0.0	 0.0	 0.0	 0.0	 0.0	 0.0	 0.0	 0.0	 0.0	 0.0	 0.0	 0.0	 0.0;
	537	 0.0	 0.0	 14.0	 0.0	 1.06135	 105.9	 0	 0.0	 0.0	 0.0	 0.0	 0.0	 0.0	 0.0	 0.0	 0.0	 0.0	 0.0	 0.0	 0.0;
	537	 0.0	 0.0	 14.0	 0.0	 1.06135	 105.9	 0	 0.0	 0.0	 0.0	 0.0	 0.0	 0.0	 0.0	 0.0	 0.0	 0.0	 0.0	 0.0	 0.0;
	538	 20.0	 0.0	 17.5	 0.0	 1.06273	 36.5	 1	 20.0	 20.0	 0.0	 0.0	 0.0	 0.0	 0.0	 0.0	 0.0	 0.0	 0.0	 0.0	 0.0;
	538	 20.0	 0.0	 17.5	 0.0	 1.06273	 35.6	 1	 20.0	 20.0	 0.0	 0.0	 0.0	 0.0	 0.0	 0.0	 0.0	 0.0	 0.0	 0.0	 0.0;
	538	 0.0	 0.0	 17.5	 0.0	 1.06273	 126.2	 0	 0.0	 0.0	 0.0	 0.0	 0.0	 0.0	 0.0	 0.0	 0.0	 0.0	 0.0	 0.0	 0.0;
	538	 0.0	 0.0	 17.5	 0.0	 1.06273	 106.4	 0	 0.0	 0.0	 0.0	 0.0	 0.0	 0.0	 0.0	 0.0	 0.0	 0.0	 0.0	 0.0	 0.0;
	552	 1.4	 0.7	 0.7	 0.0	 1.05556	 1.7	 1	 1.4	 1.4	 0.0	 0.0	 0.0	 0.0	 0.0	 0.0	 0.0	 0.0	 0.0	 0.0	 0.0;
	560	 22.5	 2.55494	 10.0	 0.0	 1.05752	 35.4	 1	 22.5	 22.5	 0.0	 0.0	 0.0	 0.0	 0.0	 0.0	 0.0	 0.0	 0.0	 0.0	 0.0;
	560	 0.0	 0.0	 5.0	 0.0	 1.05752	 28.4	 0	 0.0	 0.0	 0.0	 0.0	 0.0	 0.0	 0.0	 0.0	 0.0	 0.0	 0.0	 0.0	 0.0;
	560	 0.0	 0.0	 5.0	 0.0	 1.05752	 26.5	 0	 0.0	 0.0	 0.0	 0.0	 0.0	 0.0	 0.0	 0.0	 0.0	 0.0	 0.0	 0.0	 0.0;
	560	 0.0	 0.0	 5.0	 0.0	 1.05752	 30.4	 0	 0.0	 0.0	 0.0	 0.0	 0.0	 0.0	 0.0	 0.0	 0.0	 0.0	 0.0	 0.0	 0.0;
	560	 0.0	 0.0	 5.0	 0.0	 1.05752	 34.4	 0	 0.0	 0.0	 0.0	 0.0	 0.0	 0.0	 0.0	 0.0	 0.0	 0.0	 0.0	 0.0	 0.0;
	561	 22.5	 0.0	 10.0	 0.0	 1.0595	 35.4	 1	 22.5	 22.5	 0.0	 0.0	 0.0	 0.0	 0.0	 0.0	 0.0	 0.0	 0.0	 0.0	 0.0;
	561	 0.0	 0.0	 5.0	 0.0	 1.0595	 34.4	 0	 0.0	 0.0	 0.0	 0.0	 0.0	 0.0	 0.0	 0.0	 0.0	 0.0	 0.0	 0.0	 0.0;
	561	 0.0	 0.0	 5.0	 0.0	 1.0595	 26.5	 0	 0.0	 0.0	 0.0	 0.0	 0.0	 0.0	 0.0	 0.0	 0.0	 0.0	 0.0	 0.0	 0.0;
	561	 0.0	 0.0	 5.0	 0.0	 1.0595	 34.4	 0	 0.0	 0.0	 0.0	 0.0	 0.0	 0.0	 0.0	 0.0	 0.0	 0.0	 0.0	 0.0	 0.0;
	574	 1.0	 1.23635	 4.0	 0.0	 1.07812	 8.9	 1	 1.0	 1.0	 0.0	 0.0	 0.0	 0.0	 0.0	 0.0	 0.0	 0.0	 0.0	 0.0	 0.0;
	627	 76.0	 0.0	 30.0	 0.0	 1.09176	 97.7	 1	 76.0	 76.0	 0.0	 0.0	 0.0	 0.0	 0.0	 0.0	 0.0	 0.0	 0.0	 0.0	 0.0;
	627	 30.0	 0.0	 30.0	 0.0	 1.09176	 46.8	 1	 30.0	 30.0	 0.0	 0.0	 0.0	 0.0	 0.0	 0.0	 0.0	 0.0	 0.0	 0.0	 0.0;
	665	 130.0	 -34.0	 145.0	 -34.0	 1.09108	 267.7	 1	 225.0	 130.0	 0.0	 0.0	 0.0	 0.0	 0.0	 0.0	 0.0	 0.0	 0.0	 0.0	 0.0;
	666	 0.0	 0.0	 145.0	 -34.0	 1.09079	 267.7	 0	 225.0	 130.0	 0.0	 0.0	 0.0	 0.0	 0.0	 0.0	 0.0	 0.0	 0.0	 0.0	 0.0;
	686	 140.0	 0.0	 30.0	 0.0	 1.09115	 182.5	 1	 140.0	 140.0	 0.0	 0.0	 0.0	 0.0	 0.0	 0.0	 0.0	 0.0	 0.0	 0.0	 0.0;
	686	 47.0	 0.0	 30.0	 0.0	 1.09115	 77.5	 1	 47.0	 47.0	 0.0	 0.0	 0.0	 0.0	 0.0	 0.0	 0.0	 0.0	 0.0	 0.0	 0.0;
	692	 1.98	 0.0	 1.0	 0.0	 1.09065	 2.7	 1	 1.98	 1.98	 0.0	 0.0	 0.0	 0.0	 0.0	 0.0	 0.0	 0.0	 0.0	 0.0	 0.0;
	717	 1.32	 0.0	 1.3	 0.0	 1.08239	 10.1	 1	 1.32	 1.32	 0.0	 0.0	 0.0	 0.0	 0.0	 0.0	 0.0	 0.0	 0.0	 0.0	 0.0;
	741	 129.0	 -16.0	 130.0	 -16.0	 1.09099	 259.9	 1	 225.0	 129.0	 0.0	 0.0	 0.0	 0.0	 0.0	 0.0	 0.0	 0.0	 0.0	 0.0	 0.0;
	764	 82.0	 0.0	 30.0	 0.0	 1.06965	 105.4	 1	 82.0	 82.0	 0.0	 0.0	 0.0	 0.0	 0.0	 0.0	 0.0	 0.0	 0.0	 0.0	 0.0;
	793	 1.0	 0.0	 0.5	 0.0	 1.04724	 8.3	 1	 1.0	 1.0	 0.0	 0.0	 0.0	 0.0	 0.0	 0.0	 0.0	 0.0	 0.0	 0.0	 0.0;
	797	 0.0	 0.0	 23.0	 0.0	 1.0493	 71.9	 0	 0.0	 0.0	 0.0	 0.0	 0.0	 0.0	 0.0	 0.0	 0.0	 0.0	 0.0	 0.0	 0.0;
	797	 0.0	 0.0	 23.0	 0.0	 1.0493	 71.9	 0	 0.0	 0.0	 0.0	 0.0	 0.0	 0.0	 0.0	 0.0	 0.0	 0.0	 0.0	 0.0	 0.0;
	797	 0.0	 0.0	 11.0	 0.0	 1.0493	 32.9	 0	 0.0	 0.0	 0.0	 0.0	 0.0	 0.0	 0.0	 0.0	 0.0	 0.0	 0.0	 0.0	 0.0;
	797	 0.0	 0.0	 10.0	 0.0	 1.0493	 32.6	 0	 0.0	 0.0	 0.0	 0.0	 0.0	 0.0	 0.0	 0.0	 0.0	 0.0	 0.0	 0.0	 0.0;
	808	 0.0	 0.0	 10.0	 0.0	 1.07568	 125.4	 0	 125.0	 84.0	 0.0	 0.0	 0.0	 0.0	 0.0	 0.0	 0.0	 0.0	 0.0	 0.0	 0.0;
	809	 92.0	 0.0	 10.0	 0.0	 1.09118	 125.4	 1	 125.0	 92.0	 0.0	 0.0	 0.0	 0.0	 0.0	 0.0	 0.0	 0.0	 0.0	 0.0	 0.0;
	846	 14.996	 0.0	 8.1	 0.0	 1.07424	 33.0	 1	 14.996	 14.996	 0.0	 0.0	 0.0	 0.0	 0.0	 0.0	 0.0	 0.0	 0.0	 0.0	 0.0;
	846	 14.996	 0.0	 8.1	 0.0	 1.07424	 33.0	 1	 14.996	 14.996	 0.0	 0.0	 0.0	 0.0	 0.0	 0.0	 0.0	 0.0	 0.0	 0.0	 0.0;
	846	 0.0	 0.0	 0.0	 0.0	 1.07424	 19.0	 0	 0.0	 0.0	 0.0	 0.0	 0.0	 0.0	 0.0	 0.0	 0.0	 0.0	 0.0	 0.0	 0.0;
	846	 0.0	 0.0	 0.0	 0.0	 1.07424	 19.0	 0	 0.0	 0.0	 0.0	 0.0	 0.0	 0.0	 0.0	 0.0	 0.0	 0.0	 0.0	 0.0	 0.0;
	878	 34.99	 5.31522	 41.2	 0.0	 1.08146	 87.7	 1	 34.99	 34.99	 0.0	 0.0	 0.0	 0.0	 0.0	 0.0	 0.0	 0.0	 0.0	 0.0	 0.0;
	901	 0.0	 0.0	 45.0	 -10.0	 1.07665	 65.8	 0	 0.0	 0.0	 0.0	 0.0	 0.0	 0.0	 0.0	 0.0	 0.0	 0.0	 0.0	 0.0	 0.0;
	901	 44.988	 -8.16076	 45.0	 -10.0	 1.07665	 71.1	 1	 44.988	 44.988	 0.0	 0.0	 0.0	 0.0	 0.0	 0.0	 0.0	 0.0	 0.0	 0.0	 0.0;
	901	 0.0	 0.0	 45.0	 -10.0	 1.07665	 71.1	 0	 0.0	 0.0	 0.0	 0.0	 0.0	 0.0	 0.0	 0.0	 0.0	 0.0	 0.0	 0.0	 0.0;
	976	 0.0	 0.0	 110.0	 -40.0	 1.08472	 162.2	 0	 0.0	 0.0	 0.0	 0.0	 0.0	 0.0	 0.0	 0.0	 0.0	 0.0	 0.0	 0.0	 0.0;
	977	 99.973	 8.09625	 110.0	 -40.0	 1.08973	 162.2	 1	 99.973	 99.973	 0.0	 0.0	 0.0	 0.0	 0.0	 0.0	 0.0	 0.0	 0.0	 0.0	 0.0;
	981	 0.0	 0.0	 0.0	 0.0	 1.08908	 16.8	 0	 0.0	 0.0	 0.0	 0.0	 0.0	 0.0	 0.0	 0.0	 0.0	 0.0	 0.0	 0.0	 0.0;
	1002	 225.568	 -32.0	 240.0	 -32.0	 1.09091	 454.5	 1	 386.0	 220.0	 0.0	 0.0	 0.0	 0.0	 0.0	 0.0	 0.0	 0.0	 0.0	 0.0	 0.0;
	1003	 0.0	 0.0	 227.0	 -30.0	 1.08396	 434.1	 0	 370.0	 220.0	 0.0	 0.0	 0.0	 0.0	 0.0	 0.0	 0.0	 0.0	 0.0	 0.0	 0.0;
	1007	 5.998	 1.447	 1.447	 0.0	 1.08685	 7.1	 1	 5.998	 5.998	 0.0	 0.0	 0.0	 0.0	 0.0	 0.0	 0.0	 0.0	 0.0	 0.0	 0.0;
	1006	 3.999	 0.447	 0.447	 0.0	 1.08685	 4.0	 1	 3.999	 3.999	 0.0	 0.0	 0.0	 0.0	 0.0	 0.0	 0.0	 0.0	 0.0	 0.0	 0.0;
	1007	 3.999	 0.447	 0.447	 0.0	 1.08685	 5.0	 1	 3.999	 3.999	 0.0	 0.0	 0.0	 0.0	 0.0	 0.0	 0.0	 0.0	 0.0	 0.0	 0.0;
	1007	 0.0	 0.0	 0.0	 0.0	 1.08685	 6.0	 0	 0.0	 0.0	 0.0	 0.0	 0.0	 0.0	 0.0	 0.0	 0.0	 0.0	 0.0	 0.0	 0.0;
	1008	 0.0	 0.0	 110.0	 -40.0	 1.08742	 174.1	 0	 0.0	 0.0	 0.0	 0.0	 0.0	 0.0	 0.0	 0.0	 0.0	 0.0	 0.0	 0.0	 0.0;
	1014	 14.996	 0.0	 4.8	 0.0	 1.08325	 20.6	 1	 14.996	 14.996	 0.0	 0.0	 0.0	 0.0	 0.0	 0.0	 0.0	 0.0	 0.0	 0.0	 0.0;
	1014	 0.0	 0.0	 0.0	 0.0	 1.08325	 12.8	 0	 0.0	 0.0	 0.0	 0.0	 0.0	 0.0	 0.0	 0.0	 0.0	 0.0	 0.0	 0.0	 0.0;
	1014	 0.0	 0.0	 0.0	 0.0	 1.08325	 12.5	 0	 0.0	 0.0	 0.0	 0.0	 0.0	 0.0	 0.0	 0.0	 0.0	 0.0	 0.0	 0.0	 0.0;
	1016	 0.0	 0.0	 0.0	 0.0	 1.08029	 20.0	 0	 0.0	 0.0	 0.0	 0.0	 0.0	 0.0	 0.0	 0.0	 0.0	 0.0	 0.0	 0.0	 0.0;
	1016	 0.0	 0.0	 0.0	 0.0	 1.08029	 19.0	 0	 0.0	 0.0	 0.0	 0.0	 0.0	 0.0	 0.0	 0.0	 0.0	 0.0	 0.0	 0.0	 0.0;
	1025	 11.997	 18.0	 18.0	 9.0	 1.07158	 30.0	 1	 11.997	 11.997	 0.0	 0.0	 0.0	 0.0	 0.0	 0.0	 0.0	 0.0	 0.0	 0.0	 0.0;
	1026	 0.0	 0.0	 18.0	 9.0	 1.07151	 30.0	 0	 0.0	 0.0	 0.0	 0.0	 0.0	 0.0	 0.0	 0.0	 0.0	 0.0	 0.0	 0.0	 0.0;
	1027	 0.0	 0.0	 14.0	 10.5	 1.07147	 32.2	 0	 0.0	 0.0	 0.0	 0.0	 0.0	 0.0	 0.0	 0.0	 0.0	 0.0	 0.0	 0.0	 0.0;
	1114	 0.0	 0.0	 37.5	 16.8	 1.08691	 62.5	 0	 0.0	 0.0	 0.0	 0.0	 0.0	 0.0	 0.0	 0.0	 0.0	 0.0	 0.0	 0.0	 0.0;
	1115	 0.0	 0.0	 37.5	 7.5	 1.0759	 62.5	 0	 0.0	 0.0	 0.0	 0.0	 0.0	 0.0	 0.0	 0.0	 0.0	 0.0	 0.0	 0.0	 0.0;
	1114	 39.989	 7.5	 37.5	 7.5	 1.08691	 62.5	 1	 39.989	 39.989	 0.0	 0.0	 0.0	 0.0	 0.0	 0.0	 0.0	 0.0	 0.0	 0.0	 0.0;
	1116	 0.0	 0.0	 37.5	 16.8	 1.08062	 62.5	 0	 0.0	 0.0	 0.0	 0.0	 0.0	 0.0	 0.0	 0.0	 0.0	 0.0	 0.0	 0.0	 0.0;
	1153	 16.995	 0.0	 5.251	 0.0	 1.07018	 30.5	 1	 16.995	 16.995	 0.0	 0.0	 0.0	 0.0	 0.0	 0.0	 0.0	 0.0	 0.0	 0.0	 0.0;
	1153	 0.0	 0.0	 0.0	 0.0	 1.07018	 6.0	 0	 0.0	 0.0	 0.0	 0.0	 0.0	 0.0	 0.0	 0.0	 0.0	 0.0	 0.0	 0.0	 0.0;
	1154	 16.995	 0.0	 5.251	 0.0	 1.07027	 30.5	 1	 16.995	 16.995	 0.0	 0.0	 0.0	 0.0	 0.0	 0.0	 0.0	 0.0	 0.0	 0.0	 0.0;
	1154	 0.0	 0.0	 0.0	 0.0	 1.07027	 25.0	 0	 0.0	 0.0	 0.0	 0.0	 0.0	 0.0	 0.0	 0.0	 0.0	 0.0	 0.0	 0.0	 0.0;
	1155	 15.996	 0.0	 5.25	 0.0	 1.07285	 30.5	 1	 15.996	 15.996	 0.0	 0.0	 0.0	 0.0	 0.0	 0.0	 0.0	 0.0	 0.0	 0.0	 0.0;
	1155	 0.0	 0.0	 0.0	 0.0	 1.07285	 6.0	 0	 0.0	 0.0	 0.0	 0.0	 0.0	 0.0	 0.0	 0.0	 0.0	 0.0	 0.0	 0.0	 0.0;
	1180	 59.984	 15.5493	 52.5	 0.0	 1.08018	 87.5	 1	 59.984	 59.984	 0.0	 0.0	 0.0	 0.0	 0.0	 0.0	 0.0	 0.0	 0.0	 0.0	 0.0;
	1181	 0.0	 0.0	 52.5	 0.0	 1.08122	 87.5	 0	 0.0	 0.0	 0.0	 0.0	 0.0	 0.0	 0.0	 0.0	 0.0	 0.0	 0.0	 0.0	 0.0;
	1181	 0.0	 0.0	 42.0	 16.8	 1.08122	 65.3	 0	 0.0	 0.0	 0.0	 0.0	 0.0	 0.0	 0.0	 0.0	 0.0	 0.0	 0.0	 0.0	 0.0;
	1189	 49.986	 0.0	 0.0	 0.0	 1.07992	 50.0	 1	 49.986	 49.986	 0.0	 0.0	 0.0	 0.0	 0.0	 0.0	 0.0	 0.0	 0.0	 0.0	 0.0;
	1247	 9.997	 0.854507	 2.0	 0.0	 1.07484	 16.7	 1	 9.997	 9.997	 0.0	 0.0	 0.0	 0.0	 0.0	 0.0	 0.0	 0.0	 0.0	 0.0	 0.0;
	1247	 0.0	 0.0	 0.0	 0.0	 1.07484	 24.0	 0	 0.0	 0.0	 0.0	 0.0	 0.0	 0.0	 0.0	 0.0	 0.0	 0.0	 0.0	 0.0	 0.0;
	1248	 0.0	 0.0	 0.0	 0.0	 1.07711	 14.6	 0	 0.0	 0.0	 0.0	 0.0	 0.0	 0.0	 0.0	 0.0	 0.0	 0.0	 0.0	 0.0	 0.0;
	1248	 0.0	 0.0	 0.0	 0.0	 1.07711	 14.6	 0	 0.0	 0.0	 0.0	 0.0	 0.0	 0.0	 0.0	 0.0	 0.0	 0.0	 0.0	 0.0	 0.0;
...
];

%% generator cost data
%	2	startup	shutdown	n	c(n-1)	...	c0
mpc.gencost = [
	2	 0.0	 0.0	 3	   0.000000	 112.780000	   0.000000;
	2	 0.0	 0.0	 3	   0.000000	 112.780000	   0.000000;
	2	 0.0	 0.0	 3	   0.000000	  76.100000	   0.000000;
	2	 0.0	 0.0	 3	   0.000000	  76.100000	   0.000000;
	2	 0.0	 0.0	 3	   0.000000	  76.100000	   0.000000;
	2	 0.0	 0.0	 3	   0.000000	  76.100000	   0.000000;
	2	 0.0	 0.0	 3	   0.000000	  76.100000	   0.000000;
	2	 0.0	 0.0	 3	   0.000000	  76.100000	   0.000000;
	2	 0.0	 0.0	 3	   0.000000	  76.100000	   0.000000;
	2	 0.0	 0.0	 3	   0.000000	  76.100000	   0.000000;
	2	 0.0	 0.0	 3	   0.000000	  76.100000	   0.000000;
	2	 0.0	 0.0	 3	   0.000000	  76.100000	   0.000000;
	2	 0.0	 0.0	 3	   0.000000	  76.100000	   0.000000;
	2	 0.0	 0.0	 3	   0.000000	 102.050000	   0.000000;
	2	 0.0	 0.0	 3	   0.000000	 102.050000	   0.000000;
	2	 0.0	 0.0	 3	   0.000000	 102.050000	   0.000000;
	2	 0.0	 0.0	 3	   0.000000	 102.050000	   0.000000;
	2	 0.0	 0.0	 3	   0.000000	 102.050000	   0.000000;
	2	 0.0	 0.0	 3	   0.000000	 102.050000	   0.000000;
	2	 0.0	 0.0	 3	   0.000000	 102.050000	   0.000000;
	2	 0.0	 0.0	 3	   0.000000	 102.050000	   0.000000;
	2	 0.0	 0.0	 3	   0.000000	 105.350000	   0.000000;
	2	 0.0	 0.0	 3	   0.000000	 105.350000	   0.000000;
	2	 0.0	 0.0	 3	   0.000000	 105.350000	   0.000000;
	2	 0.0	 0.0	 3	   0.000000	 105.350000	   0.000000;
	2	 0.0	 0.0	 3	   0.000000	 105.350000	   0.000000;
	2	 0.0	 0.0	 3	   0.000000	 105.350000	   0.000000;
	2	 0.0	 0.0	 3	   0.000000	 105.350000	   0.000000;
	2	 0.0	 0.0	 3	   0.000000	   0.000000	   0.000000;
	2	 0.0	 0.0	 3	   0.000000	  95.310000	   0.000000;
	2	 0.0	 0.0	 3	   0.000000	  95.310000	   0.000000;
	2	 0.0	 0.0	 3	   0.000000	  95.310000	   0.000000;
	2	 0.0	 0.0	 3	   0.000000	  95.310000	   0.000000;
	2	 0.0	 0.0	 3	   0.000000	  95.310000	   0.000000;
	2	 0.0	 0.0	 3	   0.000000	  90.030000	   0.000000;
	2	 0.0	 0.0	 3	   0.000000	  90.030000	   0.000000;
	2	 0.0	 0.0	 3	   0.000000	   0.000000	   0.000000;
	2	 0.0	 0.0	 3	   0.000000	   0.000000	   0.000000;
	2	 0.0	 0.0	 3	   0.000000	  92.780000	   0.000000;
	2	 0.0	 0.0	 3	   0.000000	  92.780000	   0.000000;
	2	 0.0	 0.0	 3	   0.000000	  94.090000	   0.000000;
	2	 0.0	 0.0	 3	   0.000000	  94.090000	   0.000000;
	2	 0.0	 0.0	 3	   0.000000	  97.120000	   0.000000;
	2	 0.0	 0.0	 3	   0.000000	  97.120000	   0.000000;
	2	 0.0	 0.0	 3	   0.000000	  99.520000	   0.000000;
	2	 0.0	 0.0	 3	   0.000000	  91.160000	   0.000000;
	2	 0.0	 0.0	 3	   0.000000	  91.160000	   0.000000;
	2	 0.0	 0.0	 3	   0.000000	  91.160000	   0.000000;
	2	 0.0	 0.0	 3	   0.000000	  91.160000	   0.000000;
	2	 0.0	 0.0	 3	   0.000000	  91.160000	   0.000000;
	2	 0.0	 0.0	 3	   0.000000	   0.010000	   0.000000;
	2	 0.0	 0.0	 3	   0.000000	   0.010000	   0.000000;
	2	 0.0	 0.0	 3	   0.000000	   0.010000	   0.000000;
	2	 0.0	 0.0	 3	   0.000000	   0.010000	   0.000000;
	2	 0.0	 0.0	 3	   0.000000	  92.430000	   0.000000;
	2	 0.0	 0.0	 3	   0.000000	  92.430000	   0.000000;
	2	 0.0	 0.0	 3	   0.000000	  92.430000	   0.000000;
	2	 0.0	 0.0	 3	   0.000000	  96.420000	   0.000000;
	2	 0.0	 0.0	 3	   0.000000	  96.420000	   0.000000;
	2	 0.0	 0.0	 3	   0.000000	  96.420000	   0.000000;
	2	 0.0	 0.0	 3	   0.000000	 116.010000	   0.000000;
	2	 0.0	 0.0	 3	   0.000000	 116.010000	   0.000000;
	2	 0.0	 0.0	 3	   0.000000	 116.010000	   0.000000;
	2	 0.0	 0.0	 3	   0.000000	 116.010000	   0.000000;
	2	 0.0	 0.0	 3	   0.000000	 116.010000	   0.000000;
	2	 0.0	 0.0	 3	   0.000000	 116.010000	   0.000000;
	2	 0.0	 0.0	 3	   0.000000	 116.010000	   0.000000;
	2	 0.0	 0.0	 3	   0.000000	  98.840000	   0.000000;
	2	 0.0	 0.0	 3	   0.000000	  98.840000	   0.000000;
	2	 0.0	 0.0	 3	   0.000000	  98.840000	   0.000000;
	2	 0.0	 0.0	 3	   0.000000	  98.840000	   0.000000;
	2	 0.0	 0.0	 3	   0.000000	  98.840000	   0.000000;
	2	 0.0	 0.0	 3	   0.000000	  98.840000	   0.000000;
	2	 0.0	 0.0	 3	   0.000000	  98.840000	   0.000000;
	2	 0.0	 0.0	 3	   0.000000	  98.840000	   0.000000;
	2	 0.0	 0.0	 3	   0.000000	  98.840000	   0.000000;
	2	 0.0	 0.0	 3	   0.000000	  89.220000	   0.000000;
	2	 0.0	 0.0	 3	   0.000000	  89.220000	   0.000000;
	2	 0.0	 0.0	 3	   0.000000	  89.220000	   0.000000;
	2	 0.0	 0.0	 3	   0.000000	  89.220000	   0.000000;
	2	 0.0	 0.0	 3	   0.000000	   0.000000	   0.000000;
	2	 0.0	 0.0	 3	   0.000000	   0.010000	   0.000000;
	2	 0.0	 0.0	 3	   0.000000	   0.010000	   0.000000;
	2	 0.0	 0.0	 3	   0.000000	   0.010000	   0.000000;
	2	 0.0	 0.0	 3	   0.000000	   0.010000	   0.000000;
	2	 0.0	 0.0	 3	   0.000000	   0.000000	   0.000000;
	2	 0.0	 0.0	 3	   0.000000	   0.000000	   0.000000;
	2	 0.0	 0.0	 3	   0.000000	   0.000000	   0.000000;
	2	 0.0	 0.0	 3	   0.000000	   0.000000	   0.000000;
	2	 0.0	 0.0	 3	   0.000000	   0.000000	   0.000000;
	2	 0.0	 0.0	 3	   0.000000	   0.000000	   0.000000;
	2	 0.0	 0.0	 3	   0.000000	   0.000000	   0.000000;
	2	 0.0	 0.0	 3	   0.000000	  76.100000	   0.000000;
	2	 0.0	 0.0	 3	   0.000000	   0.000000	   0.000000;
	2	 0.0	 0.0	 3	   0.000000	   0.000000	   0.000000;
	2	 0.0	 0.0	 3	   0.000000	   0.000000	   0.000000;
	2	 0.0	 0.0	 3	   0.000000	   0.000000	   0.000000;
	2	 0.0	 0.0	 3	   0.000000	   0.000000	   0.000000;
	2	 0.0	 0.0	 3	   0.000000	   0.000000	   0.000000;
	2	 0.0	 0.0	 3	   0.000000	   0.000000	   0.000000;
	2	 0.0	 0.0	 3	   0.000000	   0.000000	   0.000000;
	2	 0.0	 0.0	 3	   0.000000	   0.000000	   0.000000;
	2	 0.0	 0.0	 3	   0.000000	   0.000000	   0.000000;
	2	 0.0	 0.0	 3	   0.000000	   0.000000	   0.000000;
	2	 0.0	 0.0	 3	   0.000000	   0.000000	   0.000000;
	2	 0.0	 0.0	 3	   0.000000	   0.000000	   0.000000;
	2	 0.0	 0.0	 3	   0.000000	   0.000000	   0.000000;
	2	 0.0	 0.0	 3	   0.000000	   0.000000	   0.000000;
	2	 0.0	 0.0	 3	   0.000000	   0.000000	   0.000000;
	2	 0.0	 0.0	 3	   0.000000	   0.000000	   0.000000;
	2	 0.0	 0.0	 3	   0.000000	   0.000000	   0.000000;
	2	 0.0	 0.0	 3	   0.000000	   0.000000	   0.000000;
	2	 0.0	 0.0	 3	   0.000000	 112.780000	   0.000000;
	2	 0.0	 0.0	 3	   0.000000	 112.780000	   0.000000;
	2	 0.0	 0.0	 3	   0.000000	 112.780000	   0.000000;
	2	 0.0	 0.0	 3	   0.000000	   0.000000	   0.000000;
	2	 0.0	 0.0	 3	   0.000000	   0.000000	   0.000000;
	2	 0.0	 0.0	 3	   0.000000	   0.000000	   0.000000;
	2	 0.0	 0.0	 3	   0.000000	   0.000000	   0.000000;
	2	 0.0	 0.0	 3	   0.000000	   0.000000	   0.000000;
	2	 0.0	 0.0	 3	   0.000000	   0.000000	   0.000000;
	2	 0.0	 0.0	 3	   0.000000	   0.000000	   0.000000;
	2	 0.0	 0.0	 3	   0.000000	   0.000000	   0.000000;
	2	 0.0	 0.0	 3	   0.000000	   0.000000	   0.000000;
	2	 0.0	 0.0	 3	   0.000000	   0.000000	   0.000000;
	2	 0.0	 0.0	 3	   0.000000	   0.000000	   0.000000;
	2	 0.0	 0.0	 3	   0.000000	   0.000000	   0.000000;
	2	 0.0	 0.0	 3	   0.000000	   0.000000	   0.000000;
	2	 0.0	 0.0	 3	   0.000000	   0.000000	   0.000000;
	2	 0.0	 0.0	 3	   0.000000	   0.000000	   0.000000;
	2	 0.0	 0.0	 3	   0.000000	   0.000000	   0.000000;
	2	 0.0	 0.0	 3	   0.000000	   0.000000	   0.000000;
	2	 0.0	 0.0	 3	   0.000000	   0.000000	   0.000000;
	2	 0.0	 0.0	 3	   0.000000	   0.000000	   0.000000;
	2	 0.0	 0.0	 3	   0.000000	   0.000000	   0.000000;
	2	 0.0	 0.0	 3	   0.000000	   0.000000	   0.000000;
	2	 0.0	 0.0	 3	   0.000000	   0.000000	   0.000000;
	2	 0.0	 0.0	 3	   0.000000	   0.000000	   0.000000;
	2	 0.0	 0.0	 3	   0.000000	   0.000000	   0.000000;
	2	 0.0	 0.0	 3	   0.000000	   0.000000	   0.000000;
	2	 0.0	 0.0	 3	   0.000000	   0.000000	   0.000000;
	2	 0.0	 0.0	 3	   0.000000	 102.050000	   0.000000;
	2	 0.0	 0.0	 3	   0.000000	 102.050000	   0.000000;
	2	 0.0	 0.0	 3	   0.000000	   0.000000	   0.000000;
	2	 0.0	 0.0	 3	   0.000000	   0.000000	   0.000000;
	2	 0.0	 0.0	 3	   0.000000	   0.000000	   0.000000;
	2	 0.0	 0.0	 3	   0.000000	   0.000000	   0.000000;
	2	 0.0	 0.0	 3	   0.000000	 105.350000	   0.000000;
	2	 0.0	 0.0	 3	   0.000000	   0.000000	   0.000000;
	2	 0.0	 0.0	 3	   0.000000	   0.000000	   0.000000;
	2	 0.0	 0.0	 3	   0.000000	   0.010000	   0.000000;
	2	 0.0	 0.0	 3	   0.000000	   0.010000	   0.000000;
	2	 0.0	 0.0	 3	   0.000000	   0.010000	   0.000000;
	2	 0.0	 0.0	 3	   0.000000	   0.010000	   0.000000;
	2	 0.0	 0.0	 3	   0.000000	 111.630000	   0.000000;
	2	 0.0	 0.0	 3	   0.000000	 111.630000	   0.000000;
	2	 0.0	 0.0	 3	   0.000000	   0.000000	   0.000000;
	2	 0.0	 0.0	 3	   0.000000	   0.000000	   0.000000;
	2	 0.0	 0.0	 3	   0.000000	   0.000000	   0.000000;
	2	 0.0	 0.0	 3	   0.000000	   0.000000	   0.000000;
	2	 0.0	 0.0	 3	   0.000000	   0.000000	   0.000000;
	2	 0.0	 0.0	 3	   0.000000	   0.000000	   0.000000;
	2	 0.0	 0.0	 3	   0.000000	   0.000000	   0.000000;
	2	 0.0	 0.0	 3	   0.000000	   0.000000	   0.000000;
	2	 0.0	 0.0	 3	   0.000000	   0.000000	   0.000000;
	2	 0.0	 0.0	 3	   0.000000	   0.000000	   0.000000;
	2	 0.0	 0.0	 3	   0.000000	   0.000000	   0.000000;
	2	 0.0	 0.0	 3	   0.000000	  90.030000	   0.000000;
	2	 0.0	 0.0	 3	   0.000000	  90.030000	   0.000000;
	2	 0.0	 0.0	 3	   0.000000	   0.000000	   0.000000;
	2	 0.0	 0.0	 3	   0.000000	   0.000000	   0.000000;
	2	 0.0	 0.0	 3	   0.000000	   0.000000	   0.000000;
	2	 0.0	 0.0	 3	   0.000000	   0.000000	   0.000000;
	2	 0.0	 0.0	 3	   0.000000	   0.000000	   0.000000;
	2	 0.0	 0.0	 3	   0.000000	   0.000000	   0.000000;
	2	 0.0	 0.0	 3	   0.000000	   0.000000	   0.000000;
	2	 0.0	 0.0	 3	   0.000000	   0.000000	   0.000000;
	2	 0.0	 0.0	 3	   0.000000	   0.000000	   0.000000;
	2	 0.0	 0.0	 3	   0.000000	   0.000000	   0.000000;
	2	 0.0	 0.0	 3	   0.000000	   0.000000	   0.000000;
	2	 0.0	 0.0	 3	   0.000000	   0.000000	   0.000000;
	2	 0.0	 0.0	 3	   0.000000	   0.000000	   0.000000;
	2	 0.0	 0.0	 3	   0.000000	   0.000000	   0.000000;
	2	 0.0	 0.0	 3	   0.000000	   0.000000	   0.000000;
	2	 0.0	 0.0	 3	   0.000000	   0.000000	   0.000000;
	2	 0.0	 0.0	 3	   0.000000	   0.000000	   0.000000;
	2	 0.0	 0.0	 3	   0.000000	   0.000000	   0.000000;
	2	 0.0	 0.0	 3	   0.000000	   0.000000	   0.000000;
	2	 0.0	 0.0	 3	   0.000000	   0.000000	   0.000000;
	2	 0.0	 0.0	 3	   0.000000	   0.000000	   0.000000;
	2	 0.0	 0.0	 3	   0.000000	   0.000000	   0.000000;
	2	 0.0	 0.0	 3	   0.000000	   0.000000	   0.000000;
	2	 0.0	 0.0	 3	   0.000000	   0.000000	   0.000000;
	2	 0.0	 0.0	 3	   0.000000	   0.000000	   0.000000;
	2	 0.0	 0.0	 3	   0.000000	   0.000000	   0.000000;
	2	 0.0	 0.0	 3	   0.000000	   0.000000	   0.000000;
	2	 0.0	 0.0	 3	   0.000000	   0.000000	   0.000000;
	2	 0.0	 0.0	 3	   0.000000	   0.000000	   0.000000;
	2	 0.0	 0.0	 3	   0.000000	   0.000000	   0.000000;
	2	 0.0	 0.0	 3	   0.000000	   0.000000	   0.000000;
...
];

%% branch data
%	fbus	tbus	r	x	b	rateA	rateB	rateC	ratio	angle	status	angmin	angmax
mpc.branch = [
	7	 8	 0.00064	 0.0305	 0.0	 400.0	 400.0	 400.0	 1.0435	 -0.6	 1	 -30.0	 30.0;
	26	 28	 0.00036	 0.02519	 0.0	 500.0	 500.0	 500.0	 1.0911	 0.0	 1	 -30.0	 30.0;
	27	 29	 0.00036	 0.02519	 0.0	 500.0	 500.0	 500.0	 1.0759	 0.0	 1	 -30.0	 30.0;
	39	 41	 0.00034	 0.02097	 0.0	 500.0	 500.0	 500.0	 1.0793	 0.0	 1	 -30.0	 30.0;
	42	 45	 0.00034	 0.02097	 0.0	 500.0	 500.0	 500.0	 1.0296	 0.0	 1	 -30.0	 30.0;
	54	 56	 0.00081	 0.03	 0.0	 400.0	 400.0	 400.0	 1.0501	 0.0	 1	 -30.0	 30.0;
	63	 65	 0.00015	 0.01071	 0.0	 1250.0	 1250.0	 1250.0	 0.9673	 0.0	 1	 -30.0	 30.0;
	64	 65	 0.00015	 0.01071	 0.0	 1250.0	 1250.0	 1250.0	 0.9665	 0.0	 0	 -30.0	 30.0;
	90	 92	 0.00075	 0.02444	 -0.00832	 330.0	 330.0	 330.0	 1.0474	 0.0	 1	 -30.0	 30.0;
	91	 93	 0.00075	 0.02469	 -0.008	 330.0	 330.0	 330.0	 1.0445	 0.0	 1	 -30.0	 30.0;
	125	 128	 0.0005	 0.02875	 -0.016	 400.0	 400.0	 400.0	 1.1172	 0.0	 1	 -30.0	 30.0;
	149	 150	 0.00064	 0.0305	 0.0	 400.0	 400.0	 400.0	 1.077	 0.0	 1	 -30.0	 30.0;
	155	 157	 0.000232	 0.023	 0.0	 500.0	 500.0	 500.0	 1.0887	 0.0	 1	 -30.0	 30.0;
	156	 158	 0.000232	 0.023	 0.0	 500.0	 500.0	 500.0	 1.0887	 0.0	 1	 -30.0	 30.0;
	169	 171	 0.00035	 0.02375	 0.0	 500.0	 500.0	 500.0	 1.0894	 0.0	 1	 -30.0	 30.0;
	183	 184	 0.00059	 0.030919	 0.0	 400.0	 400.0	 400.0	 1.0584	 0.0	 1	 -30.0	 30.0;
	190	 192	 0.0004	 0.03	 0.0	 500.0	 500.0	 500.0	 1.0855	 3.6	 1	 -30.0	 30.0;
	2727	 157	 0.00031	 0.00338	 0.0992	 1386.0	 1386.0	 1386.0	 0.0	 0.0	 1	 -30.0	 30.0;
	2727	 158	 0.00031	 0.00338	 0.0992	 1386.0	 1386.0	 1386.0	 0.0	 0.0	 1	 -30.0	 30.0;
	2728	 68	 0.014341	 0.083531	 0.126034	 385.0	 385.0	 385.0	 0.0	 0.0	 1	 -30.0	 30.0;
	2726	 76	 0.01219	 0.070659	 0.117418	 412.0	 412.0	 412.0	 0.0	 0.0	 1	 -30.0	 30.0;
	2726	 105	 0.011781	 0.07087	 0.116838	 412.0	 412.0	 412.0	 0.0	 0.0	 1	 -30.0	 30.0;
	127	 2725	 0.001525	 0.016837	 0.50576	 1386.0	 1386.0	 1386.0	 0.0	 0.0	 1	 -30.0	 30.0;
	2729	 148	 0.001651	 0.015909	 0.046948	 316.0	 316.0	 316.0	 0.0	 0.0	 1	 -30.0	 30.0;
	2729	 149	 0.001651	 0.015909	 0.046948	 316.0	 316.0	 316.0	 0.0	 0.0	 1	 -30.0	 30.0;
	2730	 47	 0.00188	 0.02287	 0.6432	 831.0	 831.0	 831.0	 0.0	 0.0	 1	 -30.0	 30.0;
	2730	 48	 0.00188	 0.02287	 0.6432	 831.0	 831.0	 831.0	 0.0	 0.0	 1	 -30.0	 30.0;
	82	 2724	 0.002769	 0.031162	 0.89824	 1386.0	 1386.0	 1386.0	 0.0	 0.0	 1	 -30.0	 30.0;
	42	 23	 0.01345	 0.081141	 0.141134	 339.0	 339.0	 339.0	 0.0	 0.0	 1	 -30.0	 30.0;
	26	 90	 0.009091	 0.062401	 0.111417	 453.0	 453.0	 453.0	 0.0	 0.0	 1	 -30.0	 30.0;
	27	 91	 0.00868	 0.06405	 0.096994	 427.0	 427.0	 427.0	 0.0	 0.0	 1	 -30.0	 30.0;
	146	 30	 0.016961	 0.123659	 0.196988	 316.0	 316.0	 316.0	 0.0	 0.0	 1	 -30.0	 30.0;
	135	 33	 0.00512	 0.02618	 0.029621	 301.0	 301.0	 301.0	 0.0	 0.0	 1	 -30.0	 30.0;
	134	 20	 0.01068	 0.061961	 0.094961	 385.0	 385.0	 385.0	 0.0	 0.0	 1	 -30.0	 30.0;
	164	 21	 0.014651	 0.105891	 0.170852	 316.0	 316.0	 316.0	 0.0	 0.0	 1	 -30.0	 30.0;
	40	 109	 0.01488	 0.08161	 0.114805	 314.0	 314.0	 314.0	 0.0	 0.0	 1	 -30.0	 30.0;
	39	 91	 0.011159	 0.07231	 0.103673	 324.0	 324.0	 324.0	 0.0	 0.0	 1	 -30.0	 30.0;
	178	 83	 0.005517	 0.059484	 0.170775	 316.0	 316.0	 316.0	 0.0	 0.0	 1	 -30.0	 30.0;
	203	 165	 0.01176	 0.068289	 0.102802	 324.0	 324.0	 324.0	 0.0	 0.0	 1	 -30.0	 30.0;
	194	 165	 0.016818	 0.089091	 0.129935	 358.0	 358.0	 358.0	 0.0	 0.0	 1	 -30.0	 30.0;
	193	 164	 0.013843	 0.087025	 0.134842	 383.0	 383.0	 383.0	 0.0	 0.0	 1	 -30.0	 30.0;
	207	 167	 0.01676	 0.097169	 0.148685	 269.0	 269.0	 269.0	 0.0	 0.0	 1	 -30.0	 30.0;
	42	 10	 0.01269	 0.074979	 0.130196	 351.0	 351.0	 351.0	 0.0	 0.0	 1	 -30.0	 30.0;
	198	 18	 0.014091	 0.10413	 0.15972	 316.0	 316.0	 316.0	 0.0	 0.0	 1	 -30.0	 30.0;
	100	 54	 0.003719	 0.0438	 0.100962	 457.0	 457.0	 457.0	 0.0	 0.0	 1	 -30.0	 30.0;
	162	 82	 0.00194	 0.02056	 0.51584	 1178.0	 1178.0	 1178.0	 0.0	 0.0	 1	 -30.0	 30.0;
	44	 9	 0.0015	 0.01506	 0.4032	 1386.0	 1386.0	 1386.0	 0.0	 0.0	 1	 -30.0	 30.0;
	185	 150	 0.00294	 0.03463	 0.9216	 693.0	 693.0	 693.0	 0.0	 0.0	 1	 -30.0	 30.0;
	121	 56	 0.00169	 0.01994	 0.50624	 831.0	 831.0	 831.0	 0.0	 0.0	 1	 -30.0	 30.0;
	29	 93	 0.00137	 0.01625	 0.41184	 1386.0	 1386.0	 1386.0	 0.0	 0.0	 1	 -30.0	 30.0;
	28	 123	 0.00231	 0.02769	 0.70144	 1386.0	 1386.0	 1386.0	 0.0	 0.0	 1	 -30.0	 30.0;
	25	 192	 0.00207	 0.02474	 0.664	 1386.0	 1386.0	 1386.0	 0.0	 0.0	 1	 -30.0	 30.0;
	120	 63	 0.0015	 0.01788	 0.4512	 831.0	 831.0	 831.0	 0.0	 0.0	 1	 -30.0	 30.0;
	122	 63	 0.00469	 0.05544	 1.4048	 831.0	 831.0	 831.0	 0.0	 0.0	 0	 -30.0	 30.0;
	82	 31	 0.00331	 0.03425	 0.85888	 977.0	 977.0	 977.0	 0.0	 0.0	 1	 -30.0	 30.0;
	92	 28	 0.00219	 0.02369	 0.59584	 1178.0	 1178.0	 1178.0	 0.0	 0.0	 1	 -30.0	 30.0;
	12	 4	 0.01674	 0.09711	 0.144232	 427.0	 427.0	 427.0	 0.0	 0.0	 1	 -30.0	 30.0;
	30	 11	 0.0057	 0.0407	 0.06021	 316.0	 316.0	 316.0	 0.0	 0.0	 1	 -30.0	 30.0;
	24	 4	 0.004419	 0.032229	 0.049852	 383.0	 383.0	 383.0	 0.0	 0.0	 1	 -30.0	 30.0;
	17	 7	 0.014591	 0.11219	 0.165528	 383.0	 383.0	 383.0	 0.0	 0.0	 1	 -30.0	 30.0;
	21	 10	 0.01211	 0.087419	 0.140166	 316.0	 316.0	 316.0	 0.0	 0.0	 1	 -30.0	 30.0;
	26	 5	 0.009773	 0.050516	 0.088959	 377.0	 377.0	 377.0	 0.0	 0.0	 1	 -30.0	 30.0;
	17	 3	 0.01068	 0.07895	 0.245194	 274.0	 274.0	 274.0	 0.0	 0.0	 1	 -30.0	 30.0;
	26	 19	 0.0057	 0.039521	 0.075533	 440.0	 440.0	 440.0	 0.0	 0.0	 1	 -30.0	 30.0;
	27	 20	 0.0057	 0.039521	 0.075533	 440.0	 440.0	 440.0	 0.0	 0.0	 1	 -30.0	 30.0;
	13	 6	 0.00525	 0.03988	 0.061952	 316.0	 316.0	 316.0	 0.0	 0.0	 1	 -30.0	 30.0;
	13	 12	 2.1e-05	 0.000207	 0.0	 316.0	 316.0	 316.0	 0.0	 0.0	 1	 -30.0	 30.0;
	32	 13	 0.00093	 0.00651	 0.011132	 316.0	 316.0	 316.0	 0.0	 0.0	 1	 -30.0	 30.0;
	23	 11	 0.00205	 0.01326	 0.022429	 385.0	 385.0	 385.0	 0.0	 0.0	 1	 -30.0	 30.0;
	33	 5	 0.007831	 0.043	 0.04962	 301.0	 301.0	 301.0	 0.0	 0.0	 1	 -30.0	 30.0;
	19	 4	 0.00293	 0.01599	 0.024781	 324.0	 324.0	 324.0	 0.0	 0.0	 1	 -30.0	 30.0;
	26	 1	 0.00155	 0.01169	 0.018198	 633.0	 633.0	 633.0	 0.0	 0.0	 1	 -30.0	 30.0;
	27	 2	 0.00155	 0.01169	 0.018198	 633.0	 633.0	 633.0	 0.0	 0.0	 1	 -30.0	 30.0;
	27	 24	 0.003841	 0.028531	 0.045883	 392.0	 392.0	 392.0	 0.0	 0.0	 1	 -30.0	 30.0;
	25	 9	 0.00298	 0.03418	 0.93504	 831.0	 831.0	 831.0	 0.0	 0.0	 1	 -30.0	 30.0;
	28	 25	 0.00358	 0.04262	 1.0944	 1386.0	 1386.0	 1386.0	 0.0	 0.0	 1	 -30.0	 30.0;
	14	 29	 0.00336	 0.03977	 1.02163	 1316.0	 1316.0	 1316.0	 0.0	 0.0	 1	 -30.0	 30.0;
	8	 15	 0.00299	 0.03675	 0.9184	 1150.0	 1150.0	 1150.0	 0.0	 0.0	 1	 -30.0	 30.0;
...